  Processing Data Dictionary (Energy+.idd) File -- Complete
  Maximum number of Alpha Args=        4500
  Maximum number of Numeric Args=       21040
  Number of Object Definitions=         727
  Number of Section Definitions=           2
  Total Number of Alpha Fields=       18098
  Total Number of Numeric Fields=       39469
  Total Number of Fields=       57567
  Processing Input Data File (in.idf) -- Start
      1 !-Generator IDFEditor 1.42
      2 !-Option OriginalOrderTop UseSpecialFormat
      3 !-NOTE: All comments with '!-' are ignored by the IDFEditor and are generated automatically.
      4 !-      Use '!' comments if they need to be retained when using the IDFEditor.
      5 ! RefBldgHospitalNew2004_Chicago.idf
      6 !
      7 ! This example file is based on Version 1.3_5.0 and was transitioned to Version 6.0 using the transition utility
      8 !
      9 ! DOE Commercial Reference Building
     10 ! Hospital, new construction 90.1-2004
     11 ! Version 1.3_5.0
     12 ! EnergyPlus Version 6.0
     13 ! ASHRAE Standards 90.1-2004 and 62-1999
     14 !
     15 ! Description:  Five story hospital
     16 ! Form:         Area = 22,422 m2 (241,351 ft2); Number of Stories = 5 + Basement; Aspect ratio = 1.31
     17 ! Envelope:     Envelope thermal properties vary with climate according to ASHRAE Standard 90.1-2004.
     18 !               Opaque constructions: mass walls; built-up flat roof (insulation above deck); basement
     19 !               Windows: window-to-wall ratio = 11.2% (N), 12.1% (E), 13.3% (S), 23.2%(W), 14.6% (overall)
     20 !               Infiltration in perimeter zones only
     21 !                            = 0.4 cfm/ft2 above grade wall area at 0.3 in wc (75 Pa) adjusted to 0.016 in wc (4 Pa).
     22 !                              25% of full value when ventilation system on.
     23 ! HVAC:         Water cooled electric chiller, natural gas boiler, 2 VAV systems, 2 CAV systems
     24 !               Economizer per 90.1-2004 on VAV systems
     25 !               Chiller part load curve corrected from original
     26 !
     27 ! Exhaust:      Kitchen exhaust 2501 L/s (5300 cfm), 30% of exhaust make-up air from dining
     28 !               Kitchen exhaust fan modeled as exterior load to avoid getting double make-up air
     29 ! Refrigeration: Walk-in cooler and walk-in freezer
     30 ! Elevators:    8 @ 25 HP each, 91% motor efficiency, motor heat exhausted directly
     31 !
     32 ! Int. gains:   W/m2 (W/ft2)  lights          elec plug       gas plug
     33 !               Basement      11.8 (1.1)      8.07 (0.75)     0
     34 !               ER Rooms      29.1 (2.7)      16.0 (1.5)      0
     35 !               Trauma        29.1 (2.7)      43.0 (4.0)      0
     36 !               Triage        29.1 (2.7)      29.1 (2.7)      0
     37 !               OR Rooms      23.7 (2.2)      43.0 (4.0)      0
     38 !               Nurse Stat.   12.7 (1.2)      11.2 (1.0)      0
     39 !               ICU Rooms     8.61 (0.8)      32.3 (3.0)      0
     40 !               Pat. Rooms    7.53 (0.7)      21.5 (2.0)      0
     41 !               Lobby         15.8 (1.5)      1.08 (0.1)      0
     42 !               Corridor      10.7 (1.0)      0.0 (0.0)       0
     43 !               Office        11.8 (1.1)      10.8 (1.0)      0
     44 !               Lab           15.1 (1.4)      43.0 (4.0)      0
     45 !               Kitchen       12.9 (1.2)      80.7 (7.5)      305 (28.3)
     46 !               Dining areas  9.68 (0.9)      10.8 (1.0)      0
     47 !
     48 ! Detached Shading:               None
     49 ! Daylight:                       None
     50 ! Natural Ventilation:            None
     51 ! Zonal Equipment:                None
     52 ! Air Primary Loops:              VAV with Hot Water Reheat, CAV with Hot Water Reheat
     53 ! Plant Loops:                    SHWSys1, HeatSys1, CoolSys1, TowerWaterSys
     54 ! System Equipment Autosize:      Yes
     55 ! Purchased Cooling:              None
     56 ! Purchased Heating:              None
     57 ! Coils:                          Coil:Cooling:Water:DetailedGeometry; Coil:Heating:Water
     58 ! Pumps:                          Yes
     59 ! Boilers:                        Boiler:HotWater (gas-fired)
     60 ! Chillers:                       Chiller:Electric:ReformulatedEIR (water-cooled)
     61 !***** NOTICE *****
     62 !***** The Reference Buildings were prepared as an account of work sponsored by an *****
     63 !***** agency of the United States government. Neither the United States *****
     64 !***** government nor any agency thereof, nor any of their employees, makes *****
     65 !***** any warranty, express or implied, or assumes any legal liability or *****
     66 !***** responsibility for the accuracy, completeness, or usefulness of any *****
     67 !***** information, apparatus, product, or process disclosed, or represents *****
     68 !***** that its use would not infringe privately owned rights. Reference *****
     69 !***** herein to any specific commercial product, process, or service by *****
     70 !***** trade name, trademark, manufacturer, or otherwise does not necessarily *****
     71 !***** constitute or imply its endorsement, recommendation, or favoring by *****
     72 !***** the United States government or any agency thereof. The views and *****
     73 !***** opinions of authors expressed herein do not necessarily state or *****
     74 !***** reflect those of the United States government or any agency thereof. *****
     75 !***** Access to and use of the Reference Buildings imposes the following obligations *****
     76 !***** on the user. The user agrees to credit DOE, NREL, PNNL, and LBNL in *****
     77 !***** any publication(s) that that result from the use of Reference Buildings. *****
     78 !***** However, the names of DOE/NREL/PNNL/LBNL may not be used in any *****
     79 !***** advertising or publicity that implies endorsement or promotion of any *****
     80 !***** products, services or commercial entities. *****
     81 ! Reference citation for the Commercial Reference Buildings:
     82 ! Deru, M.; Field, K.; Studer, D.; Benne, K.; Griffith, B.; Torcellini, P;
     83 ! Halverson, M.; Winiarski, D.; Liu, B.; Rosenberg, M.; Huang, J.;
     84 ! Yazdanian, M.; Crawley, D. (2010).
     85 ! U.S. Department of Energy Commercial Reference Building Models of the National Building Stock.
     86 ! Washington, DC: U.S. Department of Energy, Energy Efficiency and
     87 ! Renewable Energy, Office of Building Technologies.
     88 ! ***GENERAL SIMULATION PARAMETERS***
     89 ! Number of Zones: 55
     90 
     91   Version,8.1;
     92 
     93   SimulationControl,
     94     YES,                     !- Do Zone Sizing Calculation
     95     YES,                     !- Do System Sizing Calculation
     96     YES,                     !- Do Plant Sizing Calculation
     97     NO,                      !- Run Simulation for Sizing Periods
     98     YES;                     !- Run Simulation for Weather File Run Periods
     99 
    100   Building,
    101     Ref Bldg Hospital New2004_v1.3_5.0,  !- Name
    102     0.0000,                  !- North Axis {deg}
    103     City,                    !- Terrain
    104     0.0400,                  !- Loads Convergence Tolerance Value
    105     0.2000,                  !- Temperature Convergence Tolerance Value {deltaC}
    106     FullInteriorAndExterior, !- Solar Distribution
    107     25,                      !- Maximum Number of Warmup Days
    108     6;                       !- Minimum Number of Warmup Days
    109 
    110   RunPeriod,
    111     ,                        !- Name
    112     6,                       !- Begin Month
    113     8,                       !- Begin Day of Month
    114     6,                       !- End Month
    115     8,                       !- End Day of Month
    116     Monday,                  !- Day of Week for Start Day
    117     No,                      !- Use Weather File Holidays and Special Days
    118     No,                      !- Use Weather File Daylight Saving Period
    119     No,                      !- Apply Weekend Holiday Rule
    120     Yes,                     !- Use Weather File Rain Indicators
    121     Yes,                     !- Use Weather File Snow Indicators
    122     1.0000;                  !- Number of Times Runperiod to be Repeated
    123 
    124 ! ***HOLIDAYS & DAYLIGHT SAVINGS***
    125 
    126   RunPeriodControl:DaylightSavingTime,
    127     2nd Sunday in March,     !- Start Date
    128     1st Sunday in November;  !- End Date
    129 
    130   RunPeriodControl:SpecialDays,
    131     New Years Day,           !- Name
    132     January 1,               !- Start Date
    133     1,                       !- Duration {days}
    134     Holiday;                 !- Special Day Type
    135 
    136   RunPeriodControl:SpecialDays,
    137     Veterans Day,            !- Name
    138     November 11,             !- Start Date
    139     1,                       !- Duration {days}
    140     Holiday;                 !- Special Day Type
    141 
    142   RunPeriodControl:SpecialDays,
    143     Christmas,               !- Name
    144     December 25,             !- Start Date
    145     1,                       !- Duration {days}
    146     Holiday;                 !- Special Day Type
    147 
    148   RunPeriodControl:SpecialDays,
    149     Independence Day,        !- Name
    150     July 4,                  !- Start Date
    151     1,                       !- Duration {days}
    152     Holiday;                 !- Special Day Type
    153 
    154   RunPeriodControl:SpecialDays,
    155     MLK Day,                 !- Name
    156     3rd Monday in January,   !- Start Date
    157     1,                       !- Duration {days}
    158     Holiday;                 !- Special Day Type
    159 
    160   RunPeriodControl:SpecialDays,
    161     Presidents Day,          !- Name
    162     3rd Monday in February,  !- Start Date
    163     1,                       !- Duration {days}
    164     Holiday;                 !- Special Day Type
    165 
    166   RunPeriodControl:SpecialDays,
    167     Memorial Day,            !- Name
    168     Last Monday in May,      !- Start Date
    169     1,                       !- Duration {days}
    170     Holiday;                 !- Special Day Type
    171 
    172   RunPeriodControl:SpecialDays,
    173     Labor Day,               !- Name
    174     1st Monday in September, !- Start Date
    175     1,                       !- Duration {days}
    176     Holiday;                 !- Special Day Type
    177 
    178   RunPeriodControl:SpecialDays,
    179     Columbus Day,            !- Name
    180     2nd Monday in October,   !- Start Date
    181     1,                       !- Duration {days}
    182     Holiday;                 !- Special Day Type
    183 
    184   RunPeriodControl:SpecialDays,
    185     Thanksgiving,            !- Name
    186     4th Thursday in November,!- Start Date
    187     1,                       !- Duration {days}
    188     Holiday;                 !- Special Day Type
    189 
    190 ! ***SCHEDULE TYPES***
    191 
    192   ScheduleTypeLimits,
    193     Any Number;              !- Name
    194 
    195   ScheduleTypeLimits,
    196     Fraction,                !- Name
    197     0.0,                     !- Lower Limit Value
    198     1.0,                     !- Upper Limit Value
    199     CONTINUOUS;              !- Numeric Type
    200 
    201   ScheduleTypeLimits,
    202     Temperature,             !- Name
    203     -60,                     !- Lower Limit Value
    204     200,                     !- Upper Limit Value
    205     CONTINUOUS;              !- Numeric Type
    206 
    207   ScheduleTypeLimits,
    208     On/Off,                  !- Name
    209     0,                       !- Lower Limit Value
    210     1,                       !- Upper Limit Value
    211     DISCRETE;                !- Numeric Type
    212 
    213   ScheduleTypeLimits,
    214     Control Type,            !- Name
    215     0,                       !- Lower Limit Value
    216     4,                       !- Upper Limit Value
    217     DISCRETE;                !- Numeric Type
    218 
    219   ScheduleTypeLimits,
    220     Humidity,                !- Name
    221     10,                      !- Lower Limit Value
    222     90,                      !- Upper Limit Value
    223     CONTINUOUS;              !- Numeric Type
    224 
    225   ScheduleTypeLimits,
    226     Number;                  !- Name
    227 
    228 ! ***ALWAYS ON SCHEDULE***
    229 
    230   Schedule:Compact,
    231     ALWAYS_ON,               !- Name
    232     On/Off,                  !- Schedule Type Limits Name
    233     Through: 12/31,          !- Field 1
    234     For: AllDays,            !- Field 2
    235     Until: 24:00,1;          !- Field 3
    236 
    237 ! ***MISC SIMULATION PARAMETERS***
    238 
    239   SurfaceConvectionAlgorithm:Inside,TARP;
    240 
    241   SurfaceConvectionAlgorithm:Outside,DOE-2;
    242 
    243   HeatBalanceAlgorithm,ConductionTransferFunction,200.0000;
    244 
    245   ZoneAirHeatBalanceAlgorithm,
    246     AnalyticalSolution;      !- Algorithm
    247 
    248   Sizing:Parameters,
    249     1.2,                     !- Heating Sizing Factor
    250     1.2,                     !- Cooling Sizing Factor
    251     4;                       !- Timesteps in Averaging Window
    252 
    253   ConvergenceLimits,
    254     2,                       !- Minimum System Timestep {minutes}
    255     25;                      !- Maximum HVAC Iterations
    256 
    257   ShadowCalculation,
    258     AverageOverDaysInFrequency,  !- Calculation Method
    259     7,                       !- Calculation Frequency
    260     15000;                   !- Maximum Figures in Shadow Overlap Calculations
    261 
    262   Timestep,60;
    263 
    264 ! WeatherFileName=USA_IL_Chicago-OHare_TMY2.epw
    265 
    266   Site:Location,
    267     USA IL-CHICAGO-OHARE,    !- Name
    268     41.77,                   !- Latitude {deg}
    269     -87.75,                  !- Longitude {deg}
    270     -6.00,                   !- Time Zone {hr}
    271     190;                     !- Elevation {m}
    272 
    273 ! CHICAGO_IL_USA Annual Heating 99.6%, MaxDB=-20.6°C
    274 
    275   SizingPeriod:DesignDay,
    276     CHICAGO Ann Htg 99.6% Condns DB,  !- Name
    277     1,                       !- Month
    278     21,                      !- Day of Month
    279     WinterDesignDay,         !- Day Type
    280     -20.6,                   !- Maximum Dry-Bulb Temperature {C}
    281     0.0,                     !- Daily Dry-Bulb Temperature Range {deltaC}
    282     ,                        !- Dry-Bulb Temperature Range Modifier Type
    283     ,                        !- Dry-Bulb Temperature Range Modifier Day Schedule Name
    284     Wetbulb,                 !- Humidity Condition Type
    285     -20.6,                   !- Wetbulb or DewPoint at Maximum Dry-Bulb {C}
    286     ,                        !- Humidity Condition Day Schedule Name
    287     ,                        !- Humidity Ratio at Maximum Dry-Bulb {kgWater/kgDryAir}
    288     ,                        !- Enthalpy at Maximum Dry-Bulb {J/kg}
    289     ,                        !- Daily Wet-Bulb Temperature Range {deltaC}
    290     99063.,                  !- Barometric Pressure {Pa}
    291     4.9,                     !- Wind Speed {m/s}
    292     270,                     !- Wind Direction {deg}
    293     No,                      !- Rain Indicator
    294     No,                      !- Snow Indicator
    295     No,                      !- Daylight Saving Time Indicator
    296     ASHRAEClearSky,          !- Solar Model Indicator
    297     ,                        !- Beam Solar Day Schedule Name
    298     ,                        !- Diffuse Solar Day Schedule Name
    299     ,                        !- ASHRAE Clear Sky Optical Depth for Beam Irradiance (taub) {dimensionless}
    300     ,                        !- ASHRAE Clear Sky Optical Depth for Diffuse Irradiance (taud) {dimensionless}
    301     0.00;                    !- Sky Clearness
    302 
    303 ! CHICAGO_IL_USA Annual Cooling (WB=>MDB) .4%, MDB=31.2°C WB=25.5°C
    304 
    305   SizingPeriod:DesignDay,
    306     CHICAGO Ann Clg .4% Condns WB=>MDB,  !- Name
    307     7,                       !- Month
    308     21,                      !- Day of Month
    309     SummerDesignDay,         !- Day Type
    310     31.2,                    !- Maximum Dry-Bulb Temperature {C}
    311     10.7,                    !- Daily Dry-Bulb Temperature Range {deltaC}
    312     ,                        !- Dry-Bulb Temperature Range Modifier Type
    313     ,                        !- Dry-Bulb Temperature Range Modifier Day Schedule Name
    314     Wetbulb,                 !- Humidity Condition Type
    315     25.5,                    !- Wetbulb or DewPoint at Maximum Dry-Bulb {C}
    316     ,                        !- Humidity Condition Day Schedule Name
    317     ,                        !- Humidity Ratio at Maximum Dry-Bulb {kgWater/kgDryAir}
    318     ,                        !- Enthalpy at Maximum Dry-Bulb {J/kg}
    319     ,                        !- Daily Wet-Bulb Temperature Range {deltaC}
    320     99063.,                  !- Barometric Pressure {Pa}
    321     5.3,                     !- Wind Speed {m/s}
    322     230,                     !- Wind Direction {deg}
    323     No,                      !- Rain Indicator
    324     No,                      !- Snow Indicator
    325     No,                      !- Daylight Saving Time Indicator
    326     ASHRAEClearSky,          !- Solar Model Indicator
    327     ,                        !- Beam Solar Day Schedule Name
    328     ,                        !- Diffuse Solar Day Schedule Name
    329     ,                        !- ASHRAE Clear Sky Optical Depth for Beam Irradiance (taub) {dimensionless}
    330     ,                        !- ASHRAE Clear Sky Optical Depth for Diffuse Irradiance (taud) {dimensionless}
    331     1.00;                    !- Sky Clearness
    332 
    333   Site:WaterMainsTemperature,
    334     CORRELATION,             !- Calculation Method
    335     ,                        !- Temperature Schedule Name
    336     9.69,                    !- Annual Average Outdoor Air Temperature {C}
    337     28.10;                   !- Maximum Difference In Monthly Average Outdoor Air Temperatures {deltaC}
    338 
    339   Site:GroundTemperature:BuildingSurface,19.527,19.502,19.536,19.598,20.002,21.640,22.225,22.375,21.449,20.121,19.802,19.633;
    340 
    341 ! ***OPAQUE CONSTRUCTIONS AND MATERIALS***
    342 ! Exterior Walls
    343 
    344   Construction,
    345     Mass Non-res Ext Wall,   !- Name
    346     1IN Stucco,              !- Outside Layer
    347     8IN Concrete HW,         !- Layer 2
    348     Mass NonRes Wall Insulation,  !- Layer 3
    349     1/2IN Gypsum;            !- Layer 4
    350 
    351   Material,
    352     Mass NonRes Wall Insulation,  !- Name
    353     MediumRough,             !- Roughness
    354     0.0495494599433393,      !- Thickness {m}
    355     0.049,                   !- Conductivity {W/m-K}
    356     265.0000,                !- Density {kg/m3}
    357     836.8000,                !- Specific Heat {J/kg-K}
    358     0.9000,                  !- Thermal Absorptance
    359     0.7000,                  !- Solar Absorptance
    360     0.7000;                  !- Visible Absorptance
    361 
    362 ! Roof
    363 
    364   Construction,
    365     IEAD Non-res Roof,       !- Name
    366     Roof Membrane,           !- Outside Layer
    367     IEAD NonRes Roof Insulation,  !- Layer 2
    368     Metal Decking;           !- Layer 3
    369 
    370   Material,
    371     IEAD NonRes Roof Insulation,  !- Name
    372     MediumRough,             !- Roughness
    373     0.127338688569477,       !- Thickness {m}
    374     0.049,                   !- Conductivity {W/m-K}
    375     265.0000,                !- Density {kg/m3}
    376     836.8000,                !- Specific Heat {J/kg-K}
    377     0.9000,                  !- Thermal Absorptance
    378     0.7000,                  !- Solar Absorptance
    379     0.7000;                  !- Visible Absorptance
    380 
    381 ! Slab on grade, unheated
    382 
    383   Construction,
    384     ext-slab,                !- Name
    385     HW CONCRETE;             !- Outside Layer
    386 
    387 ! Interior Walls
    388 
    389   Construction,
    390     int-walls,               !- Name
    391     1/2IN Gypsum,            !- Outside Layer
    392     1/2IN Gypsum;            !- Layer 2
    393 
    394 ! Interior Floors
    395 
    396   Construction,
    397     INT-FLOOR-TOPSIDE,       !- Name
    398     MAT-CC05 4 HW CONCRETE,  !- Outside Layer
    399     CP02 CARPET PAD;         !- Layer 2
    400 
    401   Construction,
    402     INT-FLOOR-UNDERSIDE,     !- Name
    403     CP02 CARPET PAD,         !- Outside Layer
    404     MAT-CC05 4 HW CONCRETE;  !- Layer 2
    405 
    406   Construction,
    407     Underground Wall Non-res,!- Name
    408     8IN Concrete HW,         !- Outside Layer
    409     UGWall NonRes Insulation;!- Layer 2
    410 
    411   Material,
    412     UGWall NonRes Insulation,!- Name
    413     MediumRough,             !- Roughness
    414     0.0001,                  !- Thickness {m}
    415     0.049,                   !- Conductivity {W/m-K}
    416     265.0000,                !- Density {kg/m3}
    417     836.8000,                !- Specific Heat {J/kg-K}
    418     0.9000,                  !- Thermal Absorptance
    419     0.7000,                  !- Solar Absorptance
    420     0.7000;                  !- Visible Absorptance
    421 
    422 ! ***WINDOW/DOOR CONSTRUCTIONS AND MATERIALS***
    423 
    424   Construction,
    425     Window Non-res Fixed,    !- Name
    426     NonRes Fixed Assembly Window;  !- Outside Layer
    427 
    428   WindowMaterial:SimpleGlazingSystem,
    429     NonRes Fixed Assembly Window,  !- Name
    430     3.23646,                 !- U-Factor {W/m2-K}
    431     0.39;                    !- Solar Heat Gain Coefficient
    432 
    433   Construction,
    434     Window Res Fixed,        !- Name
    435     Res Fixed Assembly Window;  !- Outside Layer
    436 
    437   WindowMaterial:SimpleGlazingSystem,
    438     Res Fixed Assembly Window,  !- Name
    439     3.23646,                 !- U-Factor {W/m2-K}
    440     0.39;                    !- Solar Heat Gain Coefficient
    441 
    442 ! ***COMMON CONSTRUCTIONS AND MATERIALS***
    443 
    444   Construction,
    445     DropCeiling,             !- Name
    446     Std AC02;                !- Outside Layer
    447 
    448   Construction,
    449     AIR-WALL,                !- Name
    450     MAT-AIR-WALL;            !- Outside Layer
    451 
    452   Construction,
    453     InteriorFurnishings,     !- Name
    454     Std Wood 6inch;          !- Outside Layer
    455 
    456   Material,
    457     Std Wood 6inch,          !- Name
    458     MediumSmooth,            !- Roughness
    459     0.15,                    !- Thickness {m}
    460     0.12,                    !- Conductivity {W/m-K}
    461     540.0000,                !- Density {kg/m3}
    462     1210,                    !- Specific Heat {J/kg-K}
    463     0.9000000,               !- Thermal Absorptance
    464     0.7000000,               !- Solar Absorptance
    465     0.7000000;               !- Visible Absorptance
    466 
    467   Material,
    468     Wood Siding,             !- Name
    469     MediumSmooth,            !- Roughness
    470     0.0100,                  !- Thickness {m}
    471     0.1100,                  !- Conductivity {W/m-K}
    472     544.6200,                !- Density {kg/m3}
    473     1210.0000,               !- Specific Heat {J/kg-K}
    474     0.9000,                  !- Thermal Absorptance
    475     0.7800,                  !- Solar Absorptance
    476     0.7800;                  !- Visible Absorptance
    477 
    478   Material,
    479     1/2IN Gypsum,            !- Name
    480     Smooth,                  !- Roughness
    481     0.0127,                  !- Thickness {m}
    482     0.1600,                  !- Conductivity {W/m-K}
    483     784.9000,                !- Density {kg/m3}
    484     830.0000,                !- Specific Heat {J/kg-K}
    485     0.9000,                  !- Thermal Absorptance
    486     0.9200,                  !- Solar Absorptance
    487     0.9200;                  !- Visible Absorptance
    488 
    489   Material,
    490     1IN Stucco,              !- Name
    491     Smooth,                  !- Roughness
    492     0.0253,                  !- Thickness {m}
    493     0.6918,                  !- Conductivity {W/m-K}
    494     1858.0000,               !- Density {kg/m3}
    495     837.0000,                !- Specific Heat {J/kg-K}
    496     0.9000,                  !- Thermal Absorptance
    497     0.9200,                  !- Solar Absorptance
    498     0.9200;                  !- Visible Absorptance
    499 
    500   Material,
    501     8IN CONCRETE HW,         !- Name
    502     Rough,                   !- Roughness
    503     0.2032,                  !- Thickness {m}
    504     1.3110,                  !- Conductivity {W/m-K}
    505     2240.0000,               !- Density {kg/m3}
    506     836.8000,                !- Specific Heat {J/kg-K}
    507     0.9000,                  !- Thermal Absorptance
    508     0.7000,                  !- Solar Absorptance
    509     0.7000;                  !- Visible Absorptance
    510 
    511   Material,
    512     Metal Siding,            !- Name
    513     Smooth,                  !- Roughness
    514     0.0015,                  !- Thickness {m}
    515     44.9600,                 !- Conductivity {W/m-K}
    516     7688.8600,               !- Density {kg/m3}
    517     410.0000,                !- Specific Heat {J/kg-K}
    518     0.9000,                  !- Thermal Absorptance
    519     0.2000,                  !- Solar Absorptance
    520     0.2000;                  !- Visible Absorptance
    521 
    522   Material,
    523     HW CONCRETE,             !- Name
    524     Rough,                   !- Roughness
    525     0.1016,                  !- Thickness {m}
    526     1.3110,                  !- Conductivity {W/m-K}
    527     2240.0000,               !- Density {kg/m3}
    528     836.8000,                !- Specific Heat {J/kg-K}
    529     0.9000,                  !- Thermal Absorptance
    530     0.7000,                  !- Solar Absorptance
    531     0.7000;                  !- Visible Absorptance
    532 
    533   Material:NoMass,
    534     CP02 CARPET PAD,         !- Name
    535     VeryRough,               !- Roughness
    536     0.2165,                  !- Thermal Resistance {m2-K/W}
    537     0.9000,                  !- Thermal Absorptance
    538     0.7000,                  !- Solar Absorptance
    539     0.8000;                  !- Visible Absorptance
    540 
    541   Material,
    542     Roof Membrane,           !- Name
    543     VeryRough,               !- Roughness
    544     0.0095,                  !- Thickness {m}
    545     0.1600,                  !- Conductivity {W/m-K}
    546     1121.2900,               !- Density {kg/m3}
    547     1460.0000,               !- Specific Heat {J/kg-K}
    548     0.9000,                  !- Thermal Absorptance
    549     0.7000,                  !- Solar Absorptance
    550     0.7000;                  !- Visible Absorptance
    551 
    552   Material,
    553     Metal Decking,           !- Name
    554     MediumSmooth,            !- Roughness
    555     0.0015,                  !- Thickness {m}
    556     45.0060,                 !- Conductivity {W/m-K}
    557     7680.0000,               !- Density {kg/m3}
    558     418.4000,                !- Specific Heat {J/kg-K}
    559     0.9000,                  !- Thermal Absorptance
    560     0.7000,                  !- Solar Absorptance
    561     0.3000;                  !- Visible Absorptance
    562 
    563   Material,
    564     Metal Roofing,           !- Name
    565     MediumSmooth,            !- Roughness
    566     0.0015,                  !- Thickness {m}
    567     45.0060,                 !- Conductivity {W/m-K}
    568     7680.0000,               !- Density {kg/m3}
    569     418.4000,                !- Specific Heat {J/kg-K}
    570     0.9000,                  !- Thermal Absorptance
    571     0.7000,                  !- Solar Absorptance
    572     0.3000;                  !- Visible Absorptance
    573 
    574   Material,
    575     MAT-CC05 4 HW CONCRETE,  !- Name
    576     Rough,                   !- Roughness
    577     0.1016,                  !- Thickness {m}
    578     1.3110,                  !- Conductivity {W/m-K}
    579     2240.0000,               !- Density {kg/m3}
    580     836.8000,                !- Specific Heat {J/kg-K}
    581     0.9000,                  !- Thermal Absorptance
    582     0.7000,                  !- Solar Absorptance
    583     0.7000;                  !- Visible Absorptance
    584 
    585 ! Acoustic tile for drop ceiling
    586 
    587   Material,
    588     Std AC02,                !- Name
    589     MediumSmooth,            !- Roughness
    590     1.2700000E-02,           !- Thickness {m}
    591     5.7000000E-02,           !- Conductivity {W/m-K}
    592     288.0000,                !- Density {kg/m3}
    593     1339.000,                !- Specific Heat {J/kg-K}
    594     0.9000000,               !- Thermal Absorptance
    595     0.7000000,               !- Solar Absorptance
    596     0.2000000;               !- Visible Absorptance
    597 
    598   Material:NoMass,
    599     MAT-AIR-WALL,            !- Name
    600     Rough,                   !- Roughness
    601     0.2079491,               !- Thermal Resistance {m2-K/W}
    602     0.9,                     !- Thermal Absorptance
    603     0.7;                     !- Solar Absorptance
    604 
    605 ! ZONE LIST:
    606 ! Basement
    607 ! Corridor_Flr_1
    608 ! Corridor_Flr_2
    609 ! Corridor_Flr_5
    610 ! Corridor_NW_Flr_3
    611 ! Corridor_NW_Flr_4
    612 ! Corridor_SE_Flr_3
    613 ! Corridor_SE_Flr_4
    614 ! Dining_Flr_5
    615 ! ER_Exam1_Mult4_Flr_1
    616 ! ER_Exam3_Mult4_Flr_1
    617 ! ER_NurseStn_Lobby_Flr_1
    618 ! ER_Trauma1_Flr_1
    619 ! ER_Trauma2_Flr_1
    620 ! ER_Triage_Mult4_Flr_1
    621 ! ICU_Flr_2
    622 ! ICU_NurseStn_Lobby_Flr_2
    623 ! IC_PatRoom1_Mult5_Flr_2
    624 ! IC_PatRoom2_Flr_2
    625 ! IC_PatRoom3_Mult6_Flr_2
    626 ! Kitchen_Flr_5
    627 ! Lab_Flr_3
    628 ! Lab_Flr_4
    629 ! Lobby_Records_Flr_1
    630 ! NurseStn_Lobby_Flr_3
    631 ! NurseStn_Lobby_Flr_4
    632 ! NurseStn_Lobby_Flr_5
    633 ! OR1_Flr_2
    634 ! OR2_Mult5_Flr_2
    635 ! OR3_Flr_2
    636 ! OR4_Flr_2
    637 ! OR_NurseStn_Lobby_Flr_2
    638 ! Office1_Flr_5
    639 ! Office1_Mult4_Flr_1
    640 ! Office2_Mult5_Flr_5
    641 ! Office3_Flr_5
    642 ! Office4_Mult6_Flr_5
    643 ! PatRoom1_Mult10_Flr_3
    644 ! PatRoom1_Mult10_Flr_4
    645 ! PatRoom2_Flr_3
    646 ! PatRoom2_Flr_4
    647 ! PatRoom3_Mult10_Flr_3
    648 ! PatRoom3_Mult10_Flr_4
    649 ! PatRoom4_Flr_3
    650 ! PatRoom4_Flr_4
    651 ! PatRoom5_Mult10_Flr_3
    652 ! PatRoom5_Mult10_Flr_4
    653 ! PatRoom6_Flr_3
    654 ! PatRoom6_Flr_4
    655 ! PatRoom7_Mult10_Flr_3
    656 ! PatRoom7_Mult10_Flr_4
    657 ! PatRoom8_Flr_3
    658 ! PatRoom8_Flr_4
    659 ! PhysTherapy_Flr_3
    660 ! Radiology_Flr_4
    661 ! ***ZONES***
    662 
    663   Zone,
    664     Basement,                !- Name
    665     0.0000,                  !- Direction of Relative North {deg}
    666     0.0000,                  !- X Origin {m}
    667     0.0000,                  !- Y Origin {m}
    668     0.0000,                  !- Z Origin {m}
    669     1,                       !- Type
    670     1,                       !- Multiplier
    671     ,                        !- Ceiling Height {m}
    672     ,                        !- Volume {m3}
    673     autocalculate,           !- Floor Area {m2}
    674     ,                        !- Zone Inside Convection Algorithm
    675     ,                        !- Zone Outside Convection Algorithm
    676     Yes;                     !- Part of Total Floor Area
    677 
    678   Zone,
    679     Corridor_Flr_1,          !- Name
    680     0.0000,                  !- Direction of Relative North {deg}
    681     0.0000,                  !- X Origin {m}
    682     0.0000,                  !- Y Origin {m}
    683     0.0000,                  !- Z Origin {m}
    684     1,                       !- Type
    685     1,                       !- Multiplier
    686     ,                        !- Ceiling Height {m}
    687     ,                        !- Volume {m3}
    688     autocalculate,           !- Floor Area {m2}
    689     ,                        !- Zone Inside Convection Algorithm
    690     ,                        !- Zone Outside Convection Algorithm
    691     Yes;                     !- Part of Total Floor Area
    692 
    693   Zone,
    694     Corridor_Flr_2,          !- Name
    695     0.0000,                  !- Direction of Relative North {deg}
    696     0.0000,                  !- X Origin {m}
    697     0.0000,                  !- Y Origin {m}
    698     0.0000,                  !- Z Origin {m}
    699     1,                       !- Type
    700     1,                       !- Multiplier
    701     ,                        !- Ceiling Height {m}
    702     ,                        !- Volume {m3}
    703     autocalculate,           !- Floor Area {m2}
    704     ,                        !- Zone Inside Convection Algorithm
    705     ,                        !- Zone Outside Convection Algorithm
    706     Yes;                     !- Part of Total Floor Area
    707 
    708   Zone,
    709     Corridor_Flr_5,          !- Name
    710     0.0000,                  !- Direction of Relative North {deg}
    711     0.0000,                  !- X Origin {m}
    712     0.0000,                  !- Y Origin {m}
    713     0.0000,                  !- Z Origin {m}
    714     1,                       !- Type
    715     1,                       !- Multiplier
    716     ,                        !- Ceiling Height {m}
    717     ,                        !- Volume {m3}
    718     autocalculate,           !- Floor Area {m2}
    719     ,                        !- Zone Inside Convection Algorithm
    720     ,                        !- Zone Outside Convection Algorithm
    721     Yes;                     !- Part of Total Floor Area
    722 
    723   Zone,
    724     Corridor_NW_Flr_3,       !- Name
    725     0.0000,                  !- Direction of Relative North {deg}
    726     0.0000,                  !- X Origin {m}
    727     0.0000,                  !- Y Origin {m}
    728     0.0000,                  !- Z Origin {m}
    729     1,                       !- Type
    730     1,                       !- Multiplier
    731     ,                        !- Ceiling Height {m}
    732     ,                        !- Volume {m3}
    733     autocalculate,           !- Floor Area {m2}
    734     ,                        !- Zone Inside Convection Algorithm
    735     ,                        !- Zone Outside Convection Algorithm
    736     Yes;                     !- Part of Total Floor Area
    737 
    738   Zone,
    739     Corridor_NW_Flr_4,       !- Name
    740     0.0000,                  !- Direction of Relative North {deg}
    741     0.0000,                  !- X Origin {m}
    742     0.0000,                  !- Y Origin {m}
    743     0.0000,                  !- Z Origin {m}
    744     1,                       !- Type
    745     1,                       !- Multiplier
    746     ,                        !- Ceiling Height {m}
    747     ,                        !- Volume {m3}
    748     autocalculate,           !- Floor Area {m2}
    749     ,                        !- Zone Inside Convection Algorithm
    750     ,                        !- Zone Outside Convection Algorithm
    751     Yes;                     !- Part of Total Floor Area
    752 
    753   Zone,
    754     Corridor_SE_Flr_3,       !- Name
    755     0.0000,                  !- Direction of Relative North {deg}
    756     0.0000,                  !- X Origin {m}
    757     0.0000,                  !- Y Origin {m}
    758     0.0000,                  !- Z Origin {m}
    759     1,                       !- Type
    760     1,                       !- Multiplier
    761     ,                        !- Ceiling Height {m}
    762     ,                        !- Volume {m3}
    763     autocalculate,           !- Floor Area {m2}
    764     ,                        !- Zone Inside Convection Algorithm
    765     ,                        !- Zone Outside Convection Algorithm
    766     Yes;                     !- Part of Total Floor Area
    767 
    768   Zone,
    769     Corridor_SE_Flr_4,       !- Name
    770     0.0000,                  !- Direction of Relative North {deg}
    771     0.0000,                  !- X Origin {m}
    772     0.0000,                  !- Y Origin {m}
    773     0.0000,                  !- Z Origin {m}
    774     1,                       !- Type
    775     1,                       !- Multiplier
    776     ,                        !- Ceiling Height {m}
    777     ,                        !- Volume {m3}
    778     autocalculate,           !- Floor Area {m2}
    779     ,                        !- Zone Inside Convection Algorithm
    780     ,                        !- Zone Outside Convection Algorithm
    781     Yes;                     !- Part of Total Floor Area
    782 
    783   Zone,
    784     Dining_Flr_5,            !- Name
    785     0.0000,                  !- Direction of Relative North {deg}
    786     0.0000,                  !- X Origin {m}
    787     0.0000,                  !- Y Origin {m}
    788     0.0000,                  !- Z Origin {m}
    789     1,                       !- Type
    790     1,                       !- Multiplier
    791     ,                        !- Ceiling Height {m}
    792     ,                        !- Volume {m3}
    793     autocalculate,           !- Floor Area {m2}
    794     ,                        !- Zone Inside Convection Algorithm
    795     ,                        !- Zone Outside Convection Algorithm
    796     Yes;                     !- Part of Total Floor Area
    797 
    798   Zone,
    799     ER_Exam1_Mult4_Flr_1,    !- Name
    800     0.0000,                  !- Direction of Relative North {deg}
    801     0.0000,                  !- X Origin {m}
    802     0.0000,                  !- Y Origin {m}
    803     0.0000,                  !- Z Origin {m}
    804     1,                       !- Type
    805     4,                       !- Multiplier
    806     ,                        !- Ceiling Height {m}
    807     ,                        !- Volume {m3}
    808     autocalculate,           !- Floor Area {m2}
    809     ,                        !- Zone Inside Convection Algorithm
    810     ,                        !- Zone Outside Convection Algorithm
    811     Yes;                     !- Part of Total Floor Area
    812 
    813   Zone,
    814     ER_Exam3_Mult4_Flr_1,    !- Name
    815     0.0000,                  !- Direction of Relative North {deg}
    816     0.0000,                  !- X Origin {m}
    817     0.0000,                  !- Y Origin {m}
    818     0.0000,                  !- Z Origin {m}
    819     1,                       !- Type
    820     4,                       !- Multiplier
    821     ,                        !- Ceiling Height {m}
    822     ,                        !- Volume {m3}
    823     autocalculate,           !- Floor Area {m2}
    824     ,                        !- Zone Inside Convection Algorithm
    825     ,                        !- Zone Outside Convection Algorithm
    826     Yes;                     !- Part of Total Floor Area
    827 
    828   Zone,
    829     ER_NurseStn_Lobby_Flr_1, !- Name
    830     0.0000,                  !- Direction of Relative North {deg}
    831     0.0000,                  !- X Origin {m}
    832     0.0000,                  !- Y Origin {m}
    833     0.0000,                  !- Z Origin {m}
    834     1,                       !- Type
    835     1,                       !- Multiplier
    836     ,                        !- Ceiling Height {m}
    837     ,                        !- Volume {m3}
    838     autocalculate,           !- Floor Area {m2}
    839     ,                        !- Zone Inside Convection Algorithm
    840     ,                        !- Zone Outside Convection Algorithm
    841     Yes;                     !- Part of Total Floor Area
    842 
    843   Zone,
    844     ER_Trauma1_Flr_1,        !- Name
    845     0.0000,                  !- Direction of Relative North {deg}
    846     0.0000,                  !- X Origin {m}
    847     0.0000,                  !- Y Origin {m}
    848     0.0000,                  !- Z Origin {m}
    849     1,                       !- Type
    850     1,                       !- Multiplier
    851     ,                        !- Ceiling Height {m}
    852     ,                        !- Volume {m3}
    853     autocalculate,           !- Floor Area {m2}
    854     ,                        !- Zone Inside Convection Algorithm
    855     ,                        !- Zone Outside Convection Algorithm
    856     Yes;                     !- Part of Total Floor Area
    857 
    858   Zone,
    859     ER_Trauma2_Flr_1,        !- Name
    860     0.0000,                  !- Direction of Relative North {deg}
    861     0.0000,                  !- X Origin {m}
    862     0.0000,                  !- Y Origin {m}
    863     0.0000,                  !- Z Origin {m}
    864     1,                       !- Type
    865     1,                       !- Multiplier
    866     ,                        !- Ceiling Height {m}
    867     ,                        !- Volume {m3}
    868     autocalculate,           !- Floor Area {m2}
    869     ,                        !- Zone Inside Convection Algorithm
    870     ,                        !- Zone Outside Convection Algorithm
    871     Yes;                     !- Part of Total Floor Area
    872 
    873   Zone,
    874     ER_Triage_Mult4_Flr_1,   !- Name
    875     0.0000,                  !- Direction of Relative North {deg}
    876     0.0000,                  !- X Origin {m}
    877     0.0000,                  !- Y Origin {m}
    878     0.0000,                  !- Z Origin {m}
    879     1,                       !- Type
    880     4,                       !- Multiplier
    881     ,                        !- Ceiling Height {m}
    882     ,                        !- Volume {m3}
    883     autocalculate,           !- Floor Area {m2}
    884     ,                        !- Zone Inside Convection Algorithm
    885     ,                        !- Zone Outside Convection Algorithm
    886     Yes;                     !- Part of Total Floor Area
    887 
    888   Zone,
    889     ICU_Flr_2,               !- Name
    890     0.0000,                  !- Direction of Relative North {deg}
    891     0.0000,                  !- X Origin {m}
    892     0.0000,                  !- Y Origin {m}
    893     0.0000,                  !- Z Origin {m}
    894     1,                       !- Type
    895     1,                       !- Multiplier
    896     ,                        !- Ceiling Height {m}
    897     ,                        !- Volume {m3}
    898     autocalculate,           !- Floor Area {m2}
    899     ,                        !- Zone Inside Convection Algorithm
    900     ,                        !- Zone Outside Convection Algorithm
    901     Yes;                     !- Part of Total Floor Area
    902 
    903   Zone,
    904     ICU_NurseStn_Lobby_Flr_2,!- Name
    905     0.0000,                  !- Direction of Relative North {deg}
    906     0.0000,                  !- X Origin {m}
    907     0.0000,                  !- Y Origin {m}
    908     0.0000,                  !- Z Origin {m}
    909     1,                       !- Type
    910     1,                       !- Multiplier
    911     ,                        !- Ceiling Height {m}
    912     ,                        !- Volume {m3}
    913     autocalculate,           !- Floor Area {m2}
    914     ,                        !- Zone Inside Convection Algorithm
    915     ,                        !- Zone Outside Convection Algorithm
    916     Yes;                     !- Part of Total Floor Area
    917 
    918   Zone,
    919     IC_PatRoom1_Mult5_Flr_2, !- Name
    920     0.0000,                  !- Direction of Relative North {deg}
    921     0.0000,                  !- X Origin {m}
    922     0.0000,                  !- Y Origin {m}
    923     0.0000,                  !- Z Origin {m}
    924     1,                       !- Type
    925     5,                       !- Multiplier
    926     ,                        !- Ceiling Height {m}
    927     ,                        !- Volume {m3}
    928     autocalculate,           !- Floor Area {m2}
    929     ,                        !- Zone Inside Convection Algorithm
    930     ,                        !- Zone Outside Convection Algorithm
    931     Yes;                     !- Part of Total Floor Area
    932 
    933   Zone,
    934     IC_PatRoom2_Flr_2,       !- Name
    935     0.0000,                  !- Direction of Relative North {deg}
    936     0.0000,                  !- X Origin {m}
    937     0.0000,                  !- Y Origin {m}
    938     0.0000,                  !- Z Origin {m}
    939     1,                       !- Type
    940     1,                       !- Multiplier
    941     ,                        !- Ceiling Height {m}
    942     ,                        !- Volume {m3}
    943     autocalculate,           !- Floor Area {m2}
    944     ,                        !- Zone Inside Convection Algorithm
    945     ,                        !- Zone Outside Convection Algorithm
    946     Yes;                     !- Part of Total Floor Area
    947 
    948   Zone,
    949     IC_PatRoom3_Mult6_Flr_2, !- Name
    950     0.0000,                  !- Direction of Relative North {deg}
    951     0.0000,                  !- X Origin {m}
    952     0.0000,                  !- Y Origin {m}
    953     0.0000,                  !- Z Origin {m}
    954     1,                       !- Type
    955     6,                       !- Multiplier
    956     ,                        !- Ceiling Height {m}
    957     ,                        !- Volume {m3}
    958     autocalculate,           !- Floor Area {m2}
    959     ,                        !- Zone Inside Convection Algorithm
    960     ,                        !- Zone Outside Convection Algorithm
    961     Yes;                     !- Part of Total Floor Area
    962 
    963   Zone,
    964     Kitchen_Flr_5,           !- Name
    965     0.0000,                  !- Direction of Relative North {deg}
    966     0.0000,                  !- X Origin {m}
    967     0.0000,                  !- Y Origin {m}
    968     0.0000,                  !- Z Origin {m}
    969     1,                       !- Type
    970     1,                       !- Multiplier
    971     ,                        !- Ceiling Height {m}
    972     ,                        !- Volume {m3}
    973     autocalculate,           !- Floor Area {m2}
    974     ,                        !- Zone Inside Convection Algorithm
    975     ,                        !- Zone Outside Convection Algorithm
    976     Yes;                     !- Part of Total Floor Area
    977 
    978   Zone,
    979     Lab_Flr_3,               !- Name
    980     0.0000,                  !- Direction of Relative North {deg}
    981     0.0000,                  !- X Origin {m}
    982     0.0000,                  !- Y Origin {m}
    983     0.0000,                  !- Z Origin {m}
    984     1,                       !- Type
    985     1,                       !- Multiplier
    986     ,                        !- Ceiling Height {m}
    987     ,                        !- Volume {m3}
    988     autocalculate,           !- Floor Area {m2}
    989     ,                        !- Zone Inside Convection Algorithm
    990     ,                        !- Zone Outside Convection Algorithm
    991     Yes;                     !- Part of Total Floor Area
    992 
    993   Zone,
    994     Lab_Flr_4,               !- Name
    995     0.0000,                  !- Direction of Relative North {deg}
    996     0.0000,                  !- X Origin {m}
    997     0.0000,                  !- Y Origin {m}
    998     0.0000,                  !- Z Origin {m}
    999     1,                       !- Type
   1000     1,                       !- Multiplier
   1001     ,                        !- Ceiling Height {m}
   1002     ,                        !- Volume {m3}
   1003     autocalculate,           !- Floor Area {m2}
   1004     ,                        !- Zone Inside Convection Algorithm
   1005     ,                        !- Zone Outside Convection Algorithm
   1006     Yes;                     !- Part of Total Floor Area
   1007 
   1008   Zone,
   1009     Lobby_Records_Flr_1,     !- Name
   1010     0.0000,                  !- Direction of Relative North {deg}
   1011     0.0000,                  !- X Origin {m}
   1012     0.0000,                  !- Y Origin {m}
   1013     0.0000,                  !- Z Origin {m}
   1014     1,                       !- Type
   1015     1,                       !- Multiplier
   1016     ,                        !- Ceiling Height {m}
   1017     ,                        !- Volume {m3}
   1018     autocalculate,           !- Floor Area {m2}
   1019     ,                        !- Zone Inside Convection Algorithm
   1020     ,                        !- Zone Outside Convection Algorithm
   1021     Yes;                     !- Part of Total Floor Area
   1022 
   1023   Zone,
   1024     NurseStn_Lobby_Flr_3,    !- Name
   1025     0.0000,                  !- Direction of Relative North {deg}
   1026     0.0000,                  !- X Origin {m}
   1027     0.0000,                  !- Y Origin {m}
   1028     0.0000,                  !- Z Origin {m}
   1029     1,                       !- Type
   1030     1,                       !- Multiplier
   1031     ,                        !- Ceiling Height {m}
   1032     ,                        !- Volume {m3}
   1033     autocalculate,           !- Floor Area {m2}
   1034     ,                        !- Zone Inside Convection Algorithm
   1035     ,                        !- Zone Outside Convection Algorithm
   1036     Yes;                     !- Part of Total Floor Area
   1037 
   1038   Zone,
   1039     NurseStn_Lobby_Flr_4,    !- Name
   1040     0.0000,                  !- Direction of Relative North {deg}
   1041     0.0000,                  !- X Origin {m}
   1042     0.0000,                  !- Y Origin {m}
   1043     0.0000,                  !- Z Origin {m}
   1044     1,                       !- Type
   1045     1,                       !- Multiplier
   1046     ,                        !- Ceiling Height {m}
   1047     ,                        !- Volume {m3}
   1048     autocalculate,           !- Floor Area {m2}
   1049     ,                        !- Zone Inside Convection Algorithm
   1050     ,                        !- Zone Outside Convection Algorithm
   1051     Yes;                     !- Part of Total Floor Area
   1052 
   1053   Zone,
   1054     NurseStn_Lobby_Flr_5,    !- Name
   1055     0.0000,                  !- Direction of Relative North {deg}
   1056     0.0000,                  !- X Origin {m}
   1057     0.0000,                  !- Y Origin {m}
   1058     0.0000,                  !- Z Origin {m}
   1059     1,                       !- Type
   1060     1,                       !- Multiplier
   1061     ,                        !- Ceiling Height {m}
   1062     ,                        !- Volume {m3}
   1063     autocalculate,           !- Floor Area {m2}
   1064     ,                        !- Zone Inside Convection Algorithm
   1065     ,                        !- Zone Outside Convection Algorithm
   1066     Yes;                     !- Part of Total Floor Area
   1067 
   1068   Zone,
   1069     OR1_Flr_2,               !- Name
   1070     0.0000,                  !- Direction of Relative North {deg}
   1071     0.0000,                  !- X Origin {m}
   1072     0.0000,                  !- Y Origin {m}
   1073     0.0000,                  !- Z Origin {m}
   1074     1,                       !- Type
   1075     1,                       !- Multiplier
   1076     ,                        !- Ceiling Height {m}
   1077     ,                        !- Volume {m3}
   1078     autocalculate,           !- Floor Area {m2}
   1079     ,                        !- Zone Inside Convection Algorithm
   1080     ,                        !- Zone Outside Convection Algorithm
   1081     Yes;                     !- Part of Total Floor Area
   1082 
   1083   Zone,
   1084     OR2_Mult5_Flr_2,         !- Name
   1085     0.0000,                  !- Direction of Relative North {deg}
   1086     0.0000,                  !- X Origin {m}
   1087     0.0000,                  !- Y Origin {m}
   1088     0.0000,                  !- Z Origin {m}
   1089     1,                       !- Type
   1090     5,                       !- Multiplier
   1091     ,                        !- Ceiling Height {m}
   1092     ,                        !- Volume {m3}
   1093     autocalculate,           !- Floor Area {m2}
   1094     ,                        !- Zone Inside Convection Algorithm
   1095     ,                        !- Zone Outside Convection Algorithm
   1096     Yes;                     !- Part of Total Floor Area
   1097 
   1098   Zone,
   1099     OR3_Flr_2,               !- Name
   1100     0.0000,                  !- Direction of Relative North {deg}
   1101     0.0000,                  !- X Origin {m}
   1102     0.0000,                  !- Y Origin {m}
   1103     0.0000,                  !- Z Origin {m}
   1104     1,                       !- Type
   1105     1,                       !- Multiplier
   1106     ,                        !- Ceiling Height {m}
   1107     ,                        !- Volume {m3}
   1108     autocalculate,           !- Floor Area {m2}
   1109     ,                        !- Zone Inside Convection Algorithm
   1110     ,                        !- Zone Outside Convection Algorithm
   1111     Yes;                     !- Part of Total Floor Area
   1112 
   1113   Zone,
   1114     OR4_Flr_2,               !- Name
   1115     0.0000,                  !- Direction of Relative North {deg}
   1116     0.0000,                  !- X Origin {m}
   1117     0.0000,                  !- Y Origin {m}
   1118     0.0000,                  !- Z Origin {m}
   1119     1,                       !- Type
   1120     1,                       !- Multiplier
   1121     ,                        !- Ceiling Height {m}
   1122     ,                        !- Volume {m3}
   1123     autocalculate,           !- Floor Area {m2}
   1124     ,                        !- Zone Inside Convection Algorithm
   1125     ,                        !- Zone Outside Convection Algorithm
   1126     Yes;                     !- Part of Total Floor Area
   1127 
   1128   Zone,
   1129     OR_NurseStn_Lobby_Flr_2, !- Name
   1130     0.0000,                  !- Direction of Relative North {deg}
   1131     0.0000,                  !- X Origin {m}
   1132     0.0000,                  !- Y Origin {m}
   1133     0.0000,                  !- Z Origin {m}
   1134     1,                       !- Type
   1135     1,                       !- Multiplier
   1136     ,                        !- Ceiling Height {m}
   1137     ,                        !- Volume {m3}
   1138     autocalculate,           !- Floor Area {m2}
   1139     ,                        !- Zone Inside Convection Algorithm
   1140     ,                        !- Zone Outside Convection Algorithm
   1141     Yes;                     !- Part of Total Floor Area
   1142 
   1143   Zone,
   1144     Office1_Flr_5,           !- Name
   1145     0.0000,                  !- Direction of Relative North {deg}
   1146     0.0000,                  !- X Origin {m}
   1147     0.0000,                  !- Y Origin {m}
   1148     0.0000,                  !- Z Origin {m}
   1149     1,                       !- Type
   1150     1,                       !- Multiplier
   1151     ,                        !- Ceiling Height {m}
   1152     ,                        !- Volume {m3}
   1153     autocalculate,           !- Floor Area {m2}
   1154     ,                        !- Zone Inside Convection Algorithm
   1155     ,                        !- Zone Outside Convection Algorithm
   1156     Yes;                     !- Part of Total Floor Area
   1157 
   1158   Zone,
   1159     Office1_Mult4_Flr_1,     !- Name
   1160     0.0000,                  !- Direction of Relative North {deg}
   1161     0.0000,                  !- X Origin {m}
   1162     0.0000,                  !- Y Origin {m}
   1163     0.0000,                  !- Z Origin {m}
   1164     1,                       !- Type
   1165     4,                       !- Multiplier
   1166     ,                        !- Ceiling Height {m}
   1167     ,                        !- Volume {m3}
   1168     autocalculate,           !- Floor Area {m2}
   1169     ,                        !- Zone Inside Convection Algorithm
   1170     ,                        !- Zone Outside Convection Algorithm
   1171     Yes;                     !- Part of Total Floor Area
   1172 
   1173   Zone,
   1174     Office2_Mult5_Flr_5,     !- Name
   1175     0.0000,                  !- Direction of Relative North {deg}
   1176     0.0000,                  !- X Origin {m}
   1177     0.0000,                  !- Y Origin {m}
   1178     0.0000,                  !- Z Origin {m}
   1179     1,                       !- Type
   1180     5,                       !- Multiplier
   1181     ,                        !- Ceiling Height {m}
   1182     ,                        !- Volume {m3}
   1183     autocalculate,           !- Floor Area {m2}
   1184     ,                        !- Zone Inside Convection Algorithm
   1185     ,                        !- Zone Outside Convection Algorithm
   1186     Yes;                     !- Part of Total Floor Area
   1187 
   1188   Zone,
   1189     Office3_Flr_5,           !- Name
   1190     0.0000,                  !- Direction of Relative North {deg}
   1191     0.0000,                  !- X Origin {m}
   1192     0.0000,                  !- Y Origin {m}
   1193     0.0000,                  !- Z Origin {m}
   1194     1,                       !- Type
   1195     1,                       !- Multiplier
   1196     ,                        !- Ceiling Height {m}
   1197     ,                        !- Volume {m3}
   1198     autocalculate,           !- Floor Area {m2}
   1199     ,                        !- Zone Inside Convection Algorithm
   1200     ,                        !- Zone Outside Convection Algorithm
   1201     Yes;                     !- Part of Total Floor Area
   1202 
   1203   Zone,
   1204     Office4_Mult6_Flr_5,     !- Name
   1205     0.0000,                  !- Direction of Relative North {deg}
   1206     0.0000,                  !- X Origin {m}
   1207     0.0000,                  !- Y Origin {m}
   1208     0.0000,                  !- Z Origin {m}
   1209     1,                       !- Type
   1210     6,                       !- Multiplier
   1211     ,                        !- Ceiling Height {m}
   1212     ,                        !- Volume {m3}
   1213     autocalculate,           !- Floor Area {m2}
   1214     ,                        !- Zone Inside Convection Algorithm
   1215     ,                        !- Zone Outside Convection Algorithm
   1216     Yes;                     !- Part of Total Floor Area
   1217 
   1218   Zone,
   1219     PatRoom1_Mult10_Flr_3,   !- Name
   1220     0.0000,                  !- Direction of Relative North {deg}
   1221     0.0000,                  !- X Origin {m}
   1222     0.0000,                  !- Y Origin {m}
   1223     0.0000,                  !- Z Origin {m}
   1224     1,                       !- Type
   1225     10,                      !- Multiplier
   1226     ,                        !- Ceiling Height {m}
   1227     ,                        !- Volume {m3}
   1228     autocalculate,           !- Floor Area {m2}
   1229     ,                        !- Zone Inside Convection Algorithm
   1230     ,                        !- Zone Outside Convection Algorithm
   1231     Yes;                     !- Part of Total Floor Area
   1232 
   1233   Zone,
   1234     PatRoom1_Mult10_Flr_4,   !- Name
   1235     0.0000,                  !- Direction of Relative North {deg}
   1236     0.0000,                  !- X Origin {m}
   1237     0.0000,                  !- Y Origin {m}
   1238     0.0000,                  !- Z Origin {m}
   1239     1,                       !- Type
   1240     10,                      !- Multiplier
   1241     ,                        !- Ceiling Height {m}
   1242     ,                        !- Volume {m3}
   1243     autocalculate,           !- Floor Area {m2}
   1244     ,                        !- Zone Inside Convection Algorithm
   1245     ,                        !- Zone Outside Convection Algorithm
   1246     Yes;                     !- Part of Total Floor Area
   1247 
   1248   Zone,
   1249     PatRoom2_Flr_3,          !- Name
   1250     0.0000,                  !- Direction of Relative North {deg}
   1251     0.0000,                  !- X Origin {m}
   1252     0.0000,                  !- Y Origin {m}
   1253     0.0000,                  !- Z Origin {m}
   1254     1,                       !- Type
   1255     1,                       !- Multiplier
   1256     ,                        !- Ceiling Height {m}
   1257     ,                        !- Volume {m3}
   1258     autocalculate,           !- Floor Area {m2}
   1259     ,                        !- Zone Inside Convection Algorithm
   1260     ,                        !- Zone Outside Convection Algorithm
   1261     Yes;                     !- Part of Total Floor Area
   1262 
   1263   Zone,
   1264     PatRoom2_Flr_4,          !- Name
   1265     0.0000,                  !- Direction of Relative North {deg}
   1266     0.0000,                  !- X Origin {m}
   1267     0.0000,                  !- Y Origin {m}
   1268     0.0000,                  !- Z Origin {m}
   1269     1,                       !- Type
   1270     1,                       !- Multiplier
   1271     ,                        !- Ceiling Height {m}
   1272     ,                        !- Volume {m3}
   1273     autocalculate,           !- Floor Area {m2}
   1274     ,                        !- Zone Inside Convection Algorithm
   1275     ,                        !- Zone Outside Convection Algorithm
   1276     Yes;                     !- Part of Total Floor Area
   1277 
   1278   Zone,
   1279     PatRoom3_Mult10_Flr_3,   !- Name
   1280     0.0000,                  !- Direction of Relative North {deg}
   1281     0.0000,                  !- X Origin {m}
   1282     0.0000,                  !- Y Origin {m}
   1283     0.0000,                  !- Z Origin {m}
   1284     1,                       !- Type
   1285     10,                      !- Multiplier
   1286     ,                        !- Ceiling Height {m}
   1287     ,                        !- Volume {m3}
   1288     autocalculate,           !- Floor Area {m2}
   1289     ,                        !- Zone Inside Convection Algorithm
   1290     ,                        !- Zone Outside Convection Algorithm
   1291     Yes;                     !- Part of Total Floor Area
   1292 
   1293   Zone,
   1294     PatRoom3_Mult10_Flr_4,   !- Name
   1295     0.0000,                  !- Direction of Relative North {deg}
   1296     0.0000,                  !- X Origin {m}
   1297     0.0000,                  !- Y Origin {m}
   1298     0.0000,                  !- Z Origin {m}
   1299     1,                       !- Type
   1300     10,                      !- Multiplier
   1301     ,                        !- Ceiling Height {m}
   1302     ,                        !- Volume {m3}
   1303     autocalculate,           !- Floor Area {m2}
   1304     ,                        !- Zone Inside Convection Algorithm
   1305     ,                        !- Zone Outside Convection Algorithm
   1306     Yes;                     !- Part of Total Floor Area
   1307 
   1308   Zone,
   1309     PatRoom4_Flr_3,          !- Name
   1310     0.0000,                  !- Direction of Relative North {deg}
   1311     0.0000,                  !- X Origin {m}
   1312     0.0000,                  !- Y Origin {m}
   1313     0.0000,                  !- Z Origin {m}
   1314     1,                       !- Type
   1315     1,                       !- Multiplier
   1316     ,                        !- Ceiling Height {m}
   1317     ,                        !- Volume {m3}
   1318     autocalculate,           !- Floor Area {m2}
   1319     ,                        !- Zone Inside Convection Algorithm
   1320     ,                        !- Zone Outside Convection Algorithm
   1321     Yes;                     !- Part of Total Floor Area
   1322 
   1323   Zone,
   1324     PatRoom4_Flr_4,          !- Name
   1325     0.0000,                  !- Direction of Relative North {deg}
   1326     0.0000,                  !- X Origin {m}
   1327     0.0000,                  !- Y Origin {m}
   1328     0.0000,                  !- Z Origin {m}
   1329     1,                       !- Type
   1330     1,                       !- Multiplier
   1331     ,                        !- Ceiling Height {m}
   1332     ,                        !- Volume {m3}
   1333     autocalculate,           !- Floor Area {m2}
   1334     ,                        !- Zone Inside Convection Algorithm
   1335     ,                        !- Zone Outside Convection Algorithm
   1336     Yes;                     !- Part of Total Floor Area
   1337 
   1338   Zone,
   1339     PatRoom5_Mult10_Flr_3,   !- Name
   1340     0.0000,                  !- Direction of Relative North {deg}
   1341     0.0000,                  !- X Origin {m}
   1342     0.0000,                  !- Y Origin {m}
   1343     0.0000,                  !- Z Origin {m}
   1344     1,                       !- Type
   1345     10,                      !- Multiplier
   1346     ,                        !- Ceiling Height {m}
   1347     ,                        !- Volume {m3}
   1348     autocalculate,           !- Floor Area {m2}
   1349     ,                        !- Zone Inside Convection Algorithm
   1350     ,                        !- Zone Outside Convection Algorithm
   1351     Yes;                     !- Part of Total Floor Area
   1352 
   1353   Zone,
   1354     PatRoom5_Mult10_Flr_4,   !- Name
   1355     0.0000,                  !- Direction of Relative North {deg}
   1356     0.0000,                  !- X Origin {m}
   1357     0.0000,                  !- Y Origin {m}
   1358     0.0000,                  !- Z Origin {m}
   1359     1,                       !- Type
   1360     10,                      !- Multiplier
   1361     ,                        !- Ceiling Height {m}
   1362     ,                        !- Volume {m3}
   1363     autocalculate,           !- Floor Area {m2}
   1364     ,                        !- Zone Inside Convection Algorithm
   1365     ,                        !- Zone Outside Convection Algorithm
   1366     Yes;                     !- Part of Total Floor Area
   1367 
   1368   Zone,
   1369     PatRoom6_Flr_3,          !- Name
   1370     0.0000,                  !- Direction of Relative North {deg}
   1371     0.0000,                  !- X Origin {m}
   1372     0.0000,                  !- Y Origin {m}
   1373     0.0000,                  !- Z Origin {m}
   1374     1,                       !- Type
   1375     1,                       !- Multiplier
   1376     ,                        !- Ceiling Height {m}
   1377     ,                        !- Volume {m3}
   1378     autocalculate,           !- Floor Area {m2}
   1379     ,                        !- Zone Inside Convection Algorithm
   1380     ,                        !- Zone Outside Convection Algorithm
   1381     Yes;                     !- Part of Total Floor Area
   1382 
   1383   Zone,
   1384     PatRoom6_Flr_4,          !- Name
   1385     0.0000,                  !- Direction of Relative North {deg}
   1386     0.0000,                  !- X Origin {m}
   1387     0.0000,                  !- Y Origin {m}
   1388     0.0000,                  !- Z Origin {m}
   1389     1,                       !- Type
   1390     1,                       !- Multiplier
   1391     ,                        !- Ceiling Height {m}
   1392     ,                        !- Volume {m3}
   1393     autocalculate,           !- Floor Area {m2}
   1394     ,                        !- Zone Inside Convection Algorithm
   1395     ,                        !- Zone Outside Convection Algorithm
   1396     Yes;                     !- Part of Total Floor Area
   1397 
   1398   Zone,
   1399     PatRoom7_Mult10_Flr_3,   !- Name
   1400     0.0000,                  !- Direction of Relative North {deg}
   1401     0.0000,                  !- X Origin {m}
   1402     0.0000,                  !- Y Origin {m}
   1403     0.0000,                  !- Z Origin {m}
   1404     1,                       !- Type
   1405     10,                      !- Multiplier
   1406     ,                        !- Ceiling Height {m}
   1407     ,                        !- Volume {m3}
   1408     autocalculate,           !- Floor Area {m2}
   1409     ,                        !- Zone Inside Convection Algorithm
   1410     ,                        !- Zone Outside Convection Algorithm
   1411     Yes;                     !- Part of Total Floor Area
   1412 
   1413   Zone,
   1414     PatRoom7_Mult10_Flr_4,   !- Name
   1415     0.0000,                  !- Direction of Relative North {deg}
   1416     0.0000,                  !- X Origin {m}
   1417     0.0000,                  !- Y Origin {m}
   1418     0.0000,                  !- Z Origin {m}
   1419     1,                       !- Type
   1420     10,                      !- Multiplier
   1421     ,                        !- Ceiling Height {m}
   1422     ,                        !- Volume {m3}
   1423     autocalculate,           !- Floor Area {m2}
   1424     ,                        !- Zone Inside Convection Algorithm
   1425     ,                        !- Zone Outside Convection Algorithm
   1426     Yes;                     !- Part of Total Floor Area
   1427 
   1428   Zone,
   1429     PatRoom8_Flr_3,          !- Name
   1430     0.0000,                  !- Direction of Relative North {deg}
   1431     0.0000,                  !- X Origin {m}
   1432     0.0000,                  !- Y Origin {m}
   1433     0.0000,                  !- Z Origin {m}
   1434     1,                       !- Type
   1435     1,                       !- Multiplier
   1436     ,                        !- Ceiling Height {m}
   1437     ,                        !- Volume {m3}
   1438     autocalculate,           !- Floor Area {m2}
   1439     ,                        !- Zone Inside Convection Algorithm
   1440     ,                        !- Zone Outside Convection Algorithm
   1441     Yes;                     !- Part of Total Floor Area
   1442 
   1443   Zone,
   1444     PatRoom8_Flr_4,          !- Name
   1445     0.0000,                  !- Direction of Relative North {deg}
   1446     0.0000,                  !- X Origin {m}
   1447     0.0000,                  !- Y Origin {m}
   1448     0.0000,                  !- Z Origin {m}
   1449     1,                       !- Type
   1450     1,                       !- Multiplier
   1451     ,                        !- Ceiling Height {m}
   1452     ,                        !- Volume {m3}
   1453     autocalculate,           !- Floor Area {m2}
   1454     ,                        !- Zone Inside Convection Algorithm
   1455     ,                        !- Zone Outside Convection Algorithm
   1456     Yes;                     !- Part of Total Floor Area
   1457 
   1458   Zone,
   1459     PhysTherapy_Flr_3,       !- Name
   1460     0.0000,                  !- Direction of Relative North {deg}
   1461     0.0000,                  !- X Origin {m}
   1462     0.0000,                  !- Y Origin {m}
   1463     0.0000,                  !- Z Origin {m}
   1464     1,                       !- Type
   1465     1,                       !- Multiplier
   1466     ,                        !- Ceiling Height {m}
   1467     ,                        !- Volume {m3}
   1468     autocalculate,           !- Floor Area {m2}
   1469     ,                        !- Zone Inside Convection Algorithm
   1470     ,                        !- Zone Outside Convection Algorithm
   1471     Yes;                     !- Part of Total Floor Area
   1472 
   1473   Zone,
   1474     Radiology_Flr_4,         !- Name
   1475     0.0000,                  !- Direction of Relative North {deg}
   1476     0.0000,                  !- X Origin {m}
   1477     0.0000,                  !- Y Origin {m}
   1478     0.0000,                  !- Z Origin {m}
   1479     1,                       !- Type
   1480     1,                       !- Multiplier
   1481     ,                        !- Ceiling Height {m}
   1482     ,                        !- Volume {m3}
   1483     autocalculate,           !- Floor Area {m2}
   1484     ,                        !- Zone Inside Convection Algorithm
   1485     ,                        !- Zone Outside Convection Algorithm
   1486     Yes;                     !- Part of Total Floor Area
   1487 
   1488 ! ***WALLS***
   1489 
   1490   BuildingSurface:Detailed,
   1491     Basement_Ceiling,        !- Name
   1492     Ceiling,                 !- Surface Type
   1493     INT-FLOOR-UNDERSIDE,     !- Construction Name
   1494     Basement,                !- Zone Name
   1495     Surface,                 !- Outside Boundary Condition
   1496     Basement_Ceiling,        !- Outside Boundary Condition Object
   1497     NoSun,                   !- Sun Exposure
   1498     NoWind,                  !- Wind Exposure
   1499     AutoCalculate,           !- View Factor to Ground
   1500     4,                       !- Number of Vertices
   1501     0.0000,0.0000,0.0000,  !- X,Y,Z ==> Vertex 1 {m}
   1502     70.1040,0.0000,0.0000,  !- X,Y,Z ==> Vertex 2 {m}
   1503     70.1040,53.3400,0.0000,  !- X,Y,Z ==> Vertex 3 {m}
   1504     0.0000,53.3400,0.0000;  !- X,Y,Z ==> Vertex 4 {m}
   1505 
   1506   BuildingSurface:Detailed,
   1507     Basement_Floor,          !- Name
   1508     Floor,                   !- Surface Type
   1509     ext-slab,                !- Construction Name
   1510     Basement,                !- Zone Name
   1511     Ground,                  !- Outside Boundary Condition
   1512     ,                        !- Outside Boundary Condition Object
   1513     NoSun,                   !- Sun Exposure
   1514     NoWind,                  !- Wind Exposure
   1515     AutoCalculate,           !- View Factor to Ground
   1516     4,                       !- Number of Vertices
   1517     70.1040,53.3400,-2.4390,  !- X,Y,Z ==> Vertex 1 {m}
   1518     70.1040,0.0000,-2.4390,  !- X,Y,Z ==> Vertex 2 {m}
   1519     0.0000,0.0000,-2.4390,  !- X,Y,Z ==> Vertex 3 {m}
   1520     0.0000,53.3400,-2.4390;  !- X,Y,Z ==> Vertex 4 {m}
   1521 
   1522   BuildingSurface:Detailed,
   1523     Basement_Wall_East,      !- Name
   1524     Wall,                    !- Surface Type
   1525     Underground Wall Non-res,!- Construction Name
   1526     Basement,                !- Zone Name
   1527     Ground,                  !- Outside Boundary Condition
   1528     ,                        !- Outside Boundary Condition Object
   1529     NoSun,                   !- Sun Exposure
   1530     NoWind,                  !- Wind Exposure
   1531     AutoCalculate,           !- View Factor to Ground
   1532     4,                       !- Number of Vertices
   1533     70.1040,0.0000,0.0000,  !- X,Y,Z ==> Vertex 1 {m}
   1534     70.1040,0.0000,-2.4390,  !- X,Y,Z ==> Vertex 2 {m}
   1535     70.1040,53.3400,-2.4390,  !- X,Y,Z ==> Vertex 3 {m}
   1536     70.1040,53.3400,0.0000;  !- X,Y,Z ==> Vertex 4 {m}
   1537 
   1538   BuildingSurface:Detailed,
   1539     Basement_Wall_North,     !- Name
   1540     Wall,                    !- Surface Type
   1541     Underground Wall Non-res,!- Construction Name
   1542     Basement,                !- Zone Name
   1543     Ground,                  !- Outside Boundary Condition
   1544     ,                        !- Outside Boundary Condition Object
   1545     NoSun,                   !- Sun Exposure
   1546     NoWind,                  !- Wind Exposure
   1547     AutoCalculate,           !- View Factor to Ground
   1548     4,                       !- Number of Vertices
   1549     70.1040,53.3400,0.0000,  !- X,Y,Z ==> Vertex 1 {m}
   1550     70.1040,53.3400,-2.4390,  !- X,Y,Z ==> Vertex 2 {m}
   1551     0.0000,53.3400,-2.4390,  !- X,Y,Z ==> Vertex 3 {m}
   1552     0.0000,53.3400,0.0000;  !- X,Y,Z ==> Vertex 4 {m}
   1553 
   1554   BuildingSurface:Detailed,
   1555     Basement_Wall_South,     !- Name
   1556     Wall,                    !- Surface Type
   1557     Underground Wall Non-res,!- Construction Name
   1558     Basement,                !- Zone Name
   1559     Ground,                  !- Outside Boundary Condition
   1560     ,                        !- Outside Boundary Condition Object
   1561     NoSun,                   !- Sun Exposure
   1562     NoWind,                  !- Wind Exposure
   1563     AutoCalculate,           !- View Factor to Ground
   1564     4,                       !- Number of Vertices
   1565     0.0000,0.0000,0.0000,  !- X,Y,Z ==> Vertex 1 {m}
   1566     0.0000,0.0000,-2.4390,  !- X,Y,Z ==> Vertex 2 {m}
   1567     70.1040,0.0000,-2.4390,  !- X,Y,Z ==> Vertex 3 {m}
   1568     70.1040,0.0000,0.0000;  !- X,Y,Z ==> Vertex 4 {m}
   1569 
   1570   BuildingSurface:Detailed,
   1571     Basement_Wall_West,      !- Name
   1572     Wall,                    !- Surface Type
   1573     Underground Wall Non-res,!- Construction Name
   1574     Basement,                !- Zone Name
   1575     Ground,                  !- Outside Boundary Condition
   1576     ,                        !- Outside Boundary Condition Object
   1577     NoSun,                   !- Sun Exposure
   1578     NoWind,                  !- Wind Exposure
   1579     AutoCalculate,           !- View Factor to Ground
   1580     4,                       !- Number of Vertices
[...]
  23995 !    ValueWhenMaximumOrMinimum,  !- Aggregation Type for Variable or Meter 8
  23996 !    Pumps:Electricity,       !- Variable or Meter 9 Name
  23997 !    ValueWhenMaximumOrMinimum,  !- Aggregation Type for Variable or Meter 9
  23998 !    HeatRejection:Electricity,  !- Variable or Meter 10 Name
  23999 !    ValueWhenMaximumOrMinimum,  !- Aggregation Type for Variable or Meter 10
  24000 !    ExteriorEquipment:Electricity,  !- Variable or Meter 11 Name
  24001 !    ValueWhenMaximumOrMinimum,  !- Aggregation Type for Variable or Meter 11
  24002 !    Humidification:Electricity,  !- Variable or Meter 12 Name
  24003 !    ValueWhenMaximumOrMinimum,  !- Aggregation Type for Variable or Meter 12
  24004 !    HeatRecovery:Electricity,!- Variable or Meter 13 Name
  24005 !    ValueWhenMaximumOrMinimum,  !- Aggregation Type for Variable or Meter 13
  24006 !    WaterSystems:Electricity,!- Variable or Meter 14 Name
  24007 !    ValueWhenMaximumOrMinimum,  !- Aggregation Type for Variable or Meter 14
  24008 !    Refrigeration:Electricity,  !- Variable or Meter 15 Name
  24009 !    ValueWhenMaximumOrMinimum,  !- Aggregation Type for Variable or Meter 15
  24010 !    Generators:Electricity,  !- Variable or Meter 16 Name
  24011 !    ValueWhenMaximumOrMinimum,  !- Aggregation Type for Variable or Meter 16
  24012 !    ElectricityProduced:Facility,  !- Variable or Meter 17 Name
  24013 !    ValueWhenMaximumOrMinimum;  !- Aggregation Type for Variable or Meter 17
  24014 
  24015 !  Output:Table:Monthly,
  24016 !    Boiler Part Load Performance,  !- Name
  24017 !    2,                       !- Digits After Decimal
  24018 !    Boiler Part Load Ratio,  !- Variable or Meter 1 Name
  24019 !    SumOrAverage,            !- Aggregation Type for Variable or Meter 1
  24020 !    Boiler Part Load Ratio,  !- Variable or Meter 2 Name
  24021 !    Maximum;                 !- Aggregation Type for Variable or Meter 2
  24022 
  24023 !  Output:Table:Monthly,
  24024 !    Chiller Part Load Performance,  !- Name
  24025 !    2,                       !- Digits After Decimal
  24026 !    Chiller Part Load Ratio, !- Variable or Meter 1 Name
  24027 !    SumOrAverage,            !- Aggregation Type for Variable or Meter 1
  24028 !    Chiller Part Load Ratio, !- Variable or Meter 2 Name
  24029 !    Maximum;                 !- Aggregation Type for Variable or Meter 2
  24030 
  24031 !  Output:Table:Monthly,
  24032 !    Fan Part Load Performance,  !- Name
  24033 !    0,                       !- Digits After Decimal
  24034 !    Fan Electric Power,      !- Variable or Meter 1 Name
  24035 !    SumOrAverage,            !- Aggregation Type for Variable or Meter 1
  24036 !    Fan Electric Power,      !- Variable or Meter 2 Name
  24037 !    Maximum;                 !- Aggregation Type for Variable or Meter 2
  24038 
  24039 !  Output:Table:TimeBins,
  24040 !    *,                       !- Key Value
  24041 !    Zone Air Relative Humidity,  !- Variable Name
  24042 !    60,                      !- Interval Start
  24043 !    10,                      !- Interval Size
  24044 !    4;                       !- Interval Count
  24045 
  24046 !  Output:Table:TimeBins,
  24047 !    *,                       !- Key Value
  24048 !    Air System Outdoor Air Flow Fraction,  !- Variable Name
  24049 !    0.00,                    !- Interval Start
  24050 !    0.20,                    !- Interval Size
  24051 !    5;                       !- Interval Count
  24052 
  24053 !  Output:Table:TimeBins,
  24054 !    *,                       !- Key Value
  24055 !    Availability Manager Night Cycle Control Status,  !- Variable Name
  24056 !    0,                       !- Interval Start
  24057 !    1,                       !- Interval Size
  24058 !    4;                       !- Interval Count
  24059 
  24060 ! ***ENVIRONMENTAL FACTORS REPORTING***
  24061 
  24062 !  Output:EnvironmentalImpactFactors,
  24063 !    Monthly;                 !- Reporting Frequency
  24064 
  24065 !  EnvironmentalImpactFactors,
  24066 !    0.663,                   !- District Heating Efficiency
  24067 !    4.18,                    !- District Cooling COP {W/W}
  24068 !    0.585,                   !- Steam Conversion Efficiency
  24069 !    80.7272,                 !- Total Carbon Equivalent Emission Factor From N2O {kg/kg}
  24070 !    6.2727,                  !- Total Carbon Equivalent Emission Factor From CH4 {kg/kg}
  24071 !    0.2727;                  !- Total Carbon Equivalent Emission Factor From CO2 {kg/kg}
  24072 
  24073 ! Indiana electricity source and emission factors based on Deru and Torcellini 2007
  24074 
  24075 !  FuelFactors,
  24076 !    Electricity,             !- Existing Fuel Resource Name
  24077 !    kg,                      !- Units of Measure
  24078 !    ,                        !- Energy per Unit Factor
  24079 !    3.546,                   !- Source Energy Factor {J/J}
  24080 !    ,                        !- Source Energy Schedule Name
  24081 !    3.417E+02,               !- CO2 Emission Factor {g/MJ}
  24082 !    ,                        !- CO2 Emission Factor Schedule Name
  24083 !    1.186E-01,               !- CO Emission Factor {g/MJ}
  24084 !    ,                        !- CO Emission Factor Schedule Name
  24085 !   7.472E-01,               !- CH4 Emission Factor {g/MJ}
  24086 !    ,                        !- CH4 Emission Factor Schedule Name
  24087 !    6.222E-01,               !- NOx Emission Factor {g/MJ}
  24088 !    ,                        !- NOx Emission Factor Schedule Name
  24089 !    8.028E-03,               !- N2O Emission Factor {g/MJ}
  24090 !    ,                        !- N2O Emission Factor Schedule Name
  24091 !    1.872E+00,               !- SO2 Emission Factor {g/MJ}
  24092 !    ,                        !- SO2 Emission Factor Schedule Name
  24093 !    0.0,                     !- PM Emission Factor {g/MJ}
  24094 !    ,                        !- PM Emission Factor Schedule Name
  24095 !    1.739E-02,               !- PM10 Emission Factor {g/MJ}
  24096 !    ,                        !- PM10 Emission Factor Schedule Name
  24097 !    0.0,                     !- PM2.5 Emission Factor {g/MJ}
  24098 !    ,                        !- PM2.5 Emission Factor Schedule Name
  24099 !    0.0,                     !- NH3 Emission Factor {g/MJ}
  24100 !    ,                        !- NH3 Emission Factor Schedule Name
  24101 !    1.019E-02,               !- NMVOC Emission Factor {g/MJ}
  24102 !    ,                        !- NMVOC Emission Factor Schedule Name
  24103 !    5.639E-06,               !- Hg Emission Factor {g/MJ}
  24104 !    ,                        !- Hg Emission Factor Schedule Name
  24105 !    2.778E-05,               !- Pb Emission Factor {g/MJ}
  24106 !    ,                        !- Pb Emission Factor Schedule Name
  24107 !    0.4309556,               !- Water Emission Factor {L/MJ}
  24108 !    ,                        !- Water Emission Factor Schedule Name
  24109 !    0,                       !- Nuclear High Level Emission Factor {g/MJ}
  24110 !    ,                        !- Nuclear High Level Emission Factor Schedule Name
  24111 !    0;                       !- Nuclear Low Level Emission Factor {m3/MJ}
  24112 
  24113 ! Deru and Torcellini 2007
  24114 ! Source Energy and Emission Factors for Energy Use in Buildings
  24115 ! NREL/TP-550-38617
  24116 ! source factor and Higher Heating Values from Table 5
  24117 ! post-combustion emission factors for boiler from Table 9 (with factor of 1000 correction for natural gas)
  24118 
  24119 !  FuelFactors,
  24120 !    NaturalGas,              !- Existing Fuel Resource Name
  24121 !    m3,                      !- Units of Measure
  24122 !    37631000,                !- Energy per Unit Factor
  24123 !    1.092,                   !- Source Energy Factor {J/J}
  24124 !    ,                        !- Source Energy Schedule Name
  24125 !    5.21E+01,                !- CO2 Emission Factor {g/MJ}
  24126 !    ,                        !- CO2 Emission Factor Schedule Name
  24127 !    3.99E-02,                !- CO Emission Factor {g/MJ}
  24128 !    ,                        !- CO Emission Factor Schedule Name
  24129 !    1.06E-03,                !- CH4 Emission Factor {g/MJ}
  24130 !    ,                        !- CH4 Emission Factor Schedule Name
  24131 !    4.73E-02,                !- NOx Emission Factor {g/MJ}
  24132 !    ,                        !- NOx Emission Factor Schedule Name
  24133 !    1.06E-03,                !- N2O Emission Factor {g/MJ}
  24134 !    ,                        !- N2O Emission Factor Schedule Name
  24135 !    2.68E-04,                !- SO2 Emission Factor {g/MJ}
  24136 !    ,                        !- SO2 Emission Factor Schedule Name
  24137 !    0.0,                     !- PM Emission Factor {g/MJ}
  24138 !    ,                        !- PM Emission Factor Schedule Name
  24139 !    3.59E-03,                !- PM10 Emission Factor {g/MJ}
  24140 !    ,                        !- PM10 Emission Factor Schedule Name
  24141 !    0.0,                     !- PM2.5 Emission Factor {g/MJ}
  24142 !    ,                        !- PM2.5 Emission Factor Schedule Name
  24143 !    0,                       !- NH3 Emission Factor {g/MJ}
  24144 !    ,                        !- NH3 Emission Factor Schedule Name
  24145 !    2.61E-03,                !- NMVOC Emission Factor {g/MJ}
  24146 !    ,                        !- NMVOC Emission Factor Schedule Name
  24147 !    1.11E-07,                !- Hg Emission Factor {g/MJ}
  24148 !    ,                        !- Hg Emission Factor Schedule Name
  24149 !    2.13E-07,                !- Pb Emission Factor {g/MJ}
  24150 !    ,                        !- Pb Emission Factor Schedule Name
  24151 !    0,                       !- Water Emission Factor {L/MJ}
  24152 !    ,                        !- Water Emission Factor Schedule Name
  24153 !    0,                       !- Nuclear High Level Emission Factor {g/MJ}
  24154 !    ,                        !- Nuclear High Level Emission Factor Schedule Name
  24155 !    0;                       !- Nuclear Low Level Emission Factor {m3/MJ}
  24156 
  24157   ExternalInterface,
  24158     PtolemyServer;           !- Name of External Interface
  24159 
  24160   Output:EnergyManagementSystem,
  24161     Verbose, ! Actuator Availability Dictionary Reporting
  24162     Verbose, ! Internal Variable Availability Dictionary Reporting
  24163     ErrorsOnly; ! EnergyPlus Runtime Language Debug Output Level
  24164 
  24165 !======================ACTUATOR=============================================
  24166   ExternalInterface:Actuator,           !
  24167     MaxFlowAct,                         !
  24168     CoolSys1 Chiller,                 !
  24169     PlantComponent:TemperatureSource,   !
  24170     Maximum Mass Flow Rate,             ! [kg/s]
  24171     0;                                  ! initial value
  24172 
  24173 !==========================================================================
  24174 
  24175   PlantComponent:TemperatureSource,
  24176     CoolSys1 Chiller,           !- Name
  24177     CoolSys1 Pump-CoolSys1 ChillerNode,  !- Inlet Node
  24178     CoolSys1 Supply Equipment Outlet Node,  !- Outlet Node
  24179     AUTOSIZE,                   !- Design Volume Flow Rate {m3/s} 0.0025 0.11279
  24180     Scheduled,                  !- Temperature Specification Type
  24181     6.8,                        !- Source Temperature {C}
  24182     SourceCoolSch;              !- Source Temperature Schedule Name
  24183 
  24184   ExternalInterface:Schedule,
  24185     SourceCoolSch,              !- Name
  24186     Temperature,                !- Schedule Type Limits Name
  24187     6.8;                        !- Initial Value
  24188 
  24189 !======================POWER=============================================
  24190   Output:Variable,CoolSys1 Chiller,Plant Temperature Source Component Mass Flow Rate,timestep;
  24191   Output:Variable,CoolSys1 Chiller,Plant Temperature Source Component Heat Transfer Rate,timestep;
  24192   Output:Variable,CoolSys1 Chiller,Plant Temperature Source Component Inlet Temperature,timestep;
  24193   Output:Variable,CoolSys1 Chiller,Plant Temperature Source Component Outlet Temperature,timestep;
  24194 
  24195 !======================FAN POWER=============================================
  24196   Output:Variable,VAV_1_Fan,Fan Electric Power,timestep;
  24197   Output:Variable,VAV_2_Fan,Fan Electric Power,timestep;
  24198   Output:Variable,CAV_1_Fan,Fan Electric Power,timestep;
  24199   Output:Variable,CAV_2_Fan,Fan Electric Power,timestep;
  24200 
  24201 !======================COMFORT=============================================
  24202   Output:Variable,Facility,Facility Thermal Comfort ASHRAE 55 Simple Model Summer Clothes Not Comfortable Time,timestep;
  24203   Output:Variable,Facility,Facility Thermal Comfort ASHRAE 55 Simple Model Winter Clothes Not Comfortable Time,timestep;
  24204   Output:Variable,Facility,Facility Thermal Comfort ASHRAE 55 Simple Model Summer or Winter Clothes Not Comfortable Time,timestep;
  24205 
  24206 !======================NODE TEMP=============================================
  24207   Output:Variable,CoolSys1 Demand Inlet Pipe,Pipe Inlet Temperature,timestep;
  24208   Output:Variable,CoolSys1 Demand Inlet Pipe,Pipe Outlet Temperature,timestep;
  24209   Output:Variable,CoolSys1 Demand Outlet Pipe,Pipe Inlet Temperature,timestep;
  24210   Output:Variable,CoolSys1 Demand Outlet Pipe,Pipe Outlet Temperature,timestep;
  24211 
  Processing Input Data File (in.idf) -- Complete
  Maximum number of Alpha IDF Args=          72
  Maximum number of Numeric IDF Args=          32
  Number of IDF "Lines"=        1842
  Number of Defaulted Fields=         942
  Number of Fields with Defaults=        5766
  Number of Autosized Fields=         367
  Number of Autosizable Fields =         491
  Number of Autocalculated Fields=         776
  Number of Autocalculatable Fields =        1222
 Getting object=OUTPUT:SQLITE
 Getting object=VERSION
 Getting object=HEATBALANCEALGORITHM
 Getting object=TIMESTEP
 Getting object=CONVERGENCELIMITS
 Getting object=OUTPUTCONTROL:REPORTINGTOLERANCES
 Getting object=SIMULATIONCONTROL
 Getting object=OUTPUT:SURFACES:LIST
 Getting object=OUTPUT:SURFACES:DRAWING
 Getting object=OUTPUT:VARIABLEDICTIONARY
 Getting object=OUTPUT:CONSTRUCTIONS
 Getting object=OUTPUT:ENERGYMANAGEMENTSYSTEM
 Getting object=BRANCH
 Getting object=CURVE:BIQUADRATIC
 Getting object=CURVE:CUBIC
 Getting object=CURVE:QUADRATIC
 Getting object=CURVE:BICUBIC
 Getting object=NODELIST
 Getting object=BRANCHLIST
 Getting object=DESIGNSPECIFICATION:OUTDOORAIR
 Getting object=SIZING:PARAMETERS
 Getting object=ZONE
 Getting object=SIZING:ZONE
 Getting object=SIZING:SYSTEM
 Getting object=SIZING:PLANT
 Getting object=OUTPUT:VARIABLE
 Getting object=SIZINGPERIOD:DESIGNDAY
 Getting object=RUNPERIOD
 Getting object=RUNPERIODCONTROL:SPECIALDAYS
 Getting object=RUNPERIODCONTROL:DAYLIGHTSAVINGTIME
 Getting object=SITE:LOCATION
 Getting object=SITE:GROUNDTEMPERATURE:BUILDINGSURFACE
 Getting object=SITE:WATERMAINSTEMPERATURE
 Getting object=SCHEDULE:COMPACT
  Processing Schedule Input -- Start
 Getting object=SCHEDULETYPELIMITS
 Getting object=EXTERNALINTERFACE:SCHEDULE
  Processing Schedule Input -- Complete
 Getting object=BUILDING
 Getting object=SURFACECONVECTIONALGORITHM:INSIDE
 Getting object=SURFACECONVECTIONALGORITHM:OUTSIDE
 Getting object=ZONEAIRHEATBALANCEALGORITHM
 Getting object=MATERIAL
 Getting object=MATERIAL:NOMASS
 Getting object=WINDOWMATERIAL:SIMPLEGLAZINGSYSTEM
 Getting object=CONSTRUCTION
 Getting object=GLOBALGEOMETRYRULES
 Getting object=SHADING:BUILDING:DETAILED
 Getting object=BUILDINGSURFACE:DETAILED
 Getting object=FENESTRATIONSURFACE:DETAILED
 Getting object=INTERNALMASS
 Getting object=PIPE:UNDERGROUND
 Getting object=PEOPLE
 Getting object=LIGHTS
 Getting object=ELECTRICEQUIPMENT
 Getting object=GASEQUIPMENT
 Getting object=SHADOWCALCULATION
 Getting object=REFRIGERATION:CASE
 Getting object=ZONEHVAC:EQUIPMENTCONNECTIONS
 Getting object=ZONEHVAC:EQUIPMENTLIST
 Getting object=AIRLOOPHVAC:SUPPLYPATH
 Getting object=AIRLOOPHVAC:RETURNPATH
 Getting object=REFRIGERATION:COMPRESSORRACK
 Getting object=OUTDOORAIR:NODELIST
 Getting object=OUTDOORAIR:NODE
 Getting object=WATERHEATER:MIXED
 Getting object=ZONEINFILTRATION:DESIGNFLOWRATE
 Getting object=ZONEMIXING
 Getting object=EXTERNALINTERFACE:ACTUATOR
 Getting object=ZONECONTROL:THERMOSTAT
 Getting object=THERMOSTATSETPOINT:DUALSETPOINT
 Getting object=ZONECONTROL:HUMIDISTAT
 Getting object=SETPOINTMANAGER:SCHEDULED
 Getting object=SETPOINTMANAGER:SINGLEZONE:HUMIDITY:MINIMUM
 Getting object=SETPOINTMANAGER:SINGLEZONE:HUMIDITY:MAXIMUM
 Getting object=SETPOINTMANAGER:MIXEDAIR
 Getting object=PLANTLOOP
 Getting object=AVAILABILITYMANAGER:NIGHTCYCLE
 Getting object=AVAILABILITYMANAGERASSIGNMENTLIST
 Getting object=CONNECTORLIST
 Getting object=CONNECTOR:SPLITTER
 Getting object=CONNECTOR:MIXER
 Getting object=WATERUSE:EQUIPMENT
 Getting object=WATERUSE:CONNECTIONS
 Getting object=AIRLOOPHVAC:ZONESPLITTER
 Getting object=ZONEHVAC:AIRDISTRIBUTIONUNIT
 Getting object=AIRTERMINAL:SINGLEDUCT:VAV:REHEAT
 Getting object=COIL:HEATING:WATER
 Getting object=COIL:COOLING:WATER:DETAILEDGEOMETRY
 Getting object=FAN:VARIABLEVOLUME
 Getting object=FAN:ZONEEXHAUST
 Getting object=AIRLOOPHVAC:ZONEMIXER
 Getting object=AIRLOOPHVAC
 Getting object=AIRLOOPHVAC:CONTROLLERLIST
 Getting object=AIRLOOPHVAC:OUTDOORAIRSYSTEM
 Getting object=AIRLOOPHVAC:OUTDOORAIRSYSTEM:EQUIPMENTLIST
 Getting object=OUTDOORAIR:MIXER
 Getting object=CONTROLLER:WATERCOIL
 Getting object=EXTERIOR:LIGHTS
 Getting object=EXTERIOR:FUELEQUIPMENT
 Getting object=CONTROLLER:OUTDOORAIR
 Getting object=HUMIDIFIER:STEAM:ELECTRIC
 Getting object=PIPE:ADIABATIC
 Getting object=PLANTCOMPONENT:TEMPERATURESOURCE
 Getting object=BOILER:HOTWATER
 Getting object=PLANTEQUIPMENTOPERATIONSCHEMES
 Getting object=CONDENSEREQUIPMENTOPERATIONSCHEMES
 Getting object=PLANTEQUIPMENTOPERATION:COOLINGLOAD
 Getting object=PLANTEQUIPMENTOPERATION:HEATINGLOAD
 Getting object=PLANTEQUIPMENTLIST
 Getting object=PUMP:VARIABLESPEED
 Getting object=EXTERNALINTERFACE
 Getting object=OUTPUTCONTROL:TABLE:STYLE
 MonthlyInputCount=           0
 sizeMonthlyInput=           0
 MonthlyFieldSetInputCount=           0
 sizeMonthlyFieldSetInput=           0
 MonthlyTablesCount=           0
 MonthlyColumnsCount=           0
 sizeReportName=         100
 numReportName=          13
 sizeSubTable=         100
 numSubTable=          62
 sizeColumnTag=         400
 numColumnTag=         389
 sizeTableEntry=        9700
 numTableEntry=        9685
 sizeCompSizeTableEntry=         600
 numCompSizeTableEntry=         533
 NumOfRVariable=       51911
 NumOfRVariable(Total)=       51911
 NumOfRVariable(Actual)=         524
 NumOfRVariable(Summed)=         509
 NumOfRVariable(Meter)=         506
 NumOfIVariable=        2256
 NumOfIVariable(Total)=        2256
 NumOfIVariable(Actual)=           0
 NumOfIVariable(Summed)=           0
 MaxRVariable=        1000
 MaxIVariable=          10
 NumEnergyMeters=         409
 NumVarMeterArrays=         506
 maxUniqueKeyCount=        1500
 maxNumberOfFigures=           4
 MAXHCArrayBounds=          22
 MaxVerticesPerSurface=          10
 NumReportList=         500
 InstMeterCacheSize=        1000
 ClippingAlgorithm=SutherlandHodgman
 MonthlyFieldSetInputCount=           0
 NumConsideredOutputVariables=          21
 MaxConsideredOutputVariables=          21
 numActuatorsUsed=           0
 numEMSActuatorsAvailable=        7877
 maxEMSActuatorsAvailable=        8000
 numInternalVariablesUsed=           0
 numEMSInternalVarsAvailable=        1441
 maxEMSInternalVarsAvailable=        2000
 NumOfNodeConnections=        1489
 MaxNumOfNodeConnections=        2000
