Program Version,EnergyPlus-Windows-64 8.1.0.009, YMD=2014.02.19 15:35
! <Version>, Version ID
 Version, 8.1
! <Timesteps per Hour>, #TimeSteps, Minutes per TimeStep {minutes}
 Timesteps per Hour, 60,  1
! <System Convergence Limits>, Minimum System TimeStep {minutes}, Max HVAC Iterations,  Minimum Plant Iterations, Maximum Plant Iterations
 System Convergence Limits, 1, 25, 2, 8
! <Simulation Control>, Do Zone Sizing, Do System Sizing, Do Plant Sizing, Do Design Days, Do Weather Simulation
 Simulation Control, Yes, Yes, Yes, No, Yes
! <Output Reporting Tolerances>, Tolerance for Time Heating Setpoint Not Met, Tolerance for Zone Cooling Setpoint Not Met Time
 Output Reporting Tolerances, 0.556, 0.556, 
! <Site:GroundTemperature:BuildingSurface>, Months From Jan to Dec {C}
 Site:GroundTemperature:BuildingSurface,  19.53,  19.50,  19.54,  19.60,  20.00,  21.64,  22.23,  22.38,  21.45,  20.12,  19.80,  19.63
! <Site:GroundTemperature:FCfactorMethod>, Months From Jan to Dec {C}
 Site:GroundTemperature:FCfactorMethod,  -1.89,  -3.06,  -0.99,   2.23,  10.68,  17.20,  21.60,  22.94,  20.66,  15.60,   8.83,   2.56
! <Site:GroundTemperature:Shallow>, Months From Jan to Dec {C}
 Site:GroundTemperature:Shallow,  13.00,  13.00,  13.00,  13.00,  13.00,  13.00,  13.00,  13.00,  13.00,  13.00,  13.00,  13.00
! <Site:GroundTemperature:Deep>, Months From Jan to Dec {C}
 Site:GroundTemperature:Deep,  16.00,  16.00,  16.00,  16.00,  16.00,  16.00,  16.00,  16.00,  16.00,  16.00,  16.00,  16.00
! <Site:GroundReflectance>, Months From Jan to Dec {dimensionless}
 Site:GroundReflectance,  0.20,  0.20,  0.20,  0.20,  0.20,  0.20,  0.20,  0.20,  0.20,  0.20,  0.20,  0.20
! <Site:GroundReflectance:SnowModifier>, Normal, Daylighting {dimensionless}
 Site:GroundReflectance:SnowModifier,   1.000,   1.000
! <Site:GroundReflectance:Snow>, Months From Jan to Dec {dimensionless}
 Site:GroundReflectance:Snow,  0.20,  0.20,  0.20,  0.20,  0.20,  0.20,  0.20,  0.20,  0.20,  0.20,  0.20,  0.20
! <Site:GroundReflectance:Snow:Daylighting>, Months From Jan to Dec {dimensionless}
 Site:GroundReflectance:Snow:Daylighting,  0.20,  0.20,  0.20,  0.20,  0.20,  0.20,  0.20,  0.20,  0.20,  0.20,  0.20,  0.20
! <Environment:Weather Station>,Wind Sensor Height Above Ground {m},Wind Speed Profile Exponent {},Wind Speed Profile Boundary Layer Thickness {m},Air Temperature Sensor Height Above Ground {m},Wind Speed Modifier Coefficient [Internal],Temperature Modifier Coefficient [Internal]
Environment:Weather Station,10.000,0.140,270.000,1.500,1.586,9.750E-003
! <Site:Location>, Location Name, Latitude {N+/S- Deg}, Longitude {E+/W- Deg},  Time Zone Number {GMT+/-}, Elevation {m},  Standard Pressure at Elevation {Pa}, Standard RhoAir at Elevation
Site:Location,Chicago Ohare Intl Ap IL USA TMY3 WMO#=725300,41.98,-87.92,-6.00,201.00,98934,1.1759
! <Building Information>, Building Name,North Axis {deg},Terrain,  Loads Convergence Tolerance Value,Temperature Convergence Tolerance Value,  Solar Distribution,Maximum Number of Warmup Days,Minimum Number of Warmup Days
 Building Information,Ref Bldg Hospital New2004_v1.3_5.0,0.000,City,4.00000E-002,0.20000,FullInteriorAndExterior,25,6
! <Inside Convection Algorithm>, Algorithm {Simple | TARP | CeilingDiffuser | AdaptiveConvectionAlgorithm}
Inside Convection Algorithm,TARP
! <Outside Convection Algorithm>, Algorithm {SimpleCombined | TARP | MoWitt | DOE-2 | AdaptiveConvectionAlgorithm}
Outside Convection Algorithm,DOE-2
! <Sky Radiance Distribution>, Value {Anisotropic}
Sky Radiance Distribution,Anisotropic
! <Zone Air Solution Algorithm>, Value {ThirdOrderBackwardDifference | AnalyticalSolution | EulerMethod}
 Zone Air Solution Algorithm, AnalyticalSolution
! <Zone Air Contaminant Balance Simulation>, Simulation {Yes/No}, Carbon Dioxide Concentration
 Zone Air Carbon Dioxide Balance Simulation, No,N/A
! <Zone Air Contaminant Balance Simulation>, Simulation {Yes/No}, Generic Contaminant Concentration
 Zone Air Generic Contaminant Balance Simulation, No,N/A
! <Environment:Site Atmospheric Variation>,Wind Speed Profile Exponent {},Wind Speed Profile Boundary Layer Thickness {m},Air Temperature Gradient Coefficient {K/m}
Environment:Site Atmospheric Variation,0.330,460.000,6.500000E-003
! <SurfaceGeometry>,Starting Corner,Vertex Input Direction,Coordinate System,Daylight Reference Point Coordinate System,Rectangular (Simple) Surface Coordinate System
 Surface Geometry,UpperLeftCorner,Counterclockwise,RelativeCoordinateSystem,RelativeCoordinateSystem,RelativeToZoneOrigin
! <Surface Heat Transfer Algorithm>, Value {CTF - ConductionTransferFunction | EMPD - MoisturePenetrationDepthConductionTransferFunction | CondFD - ConductionFiniteDifference | HAMT - CombinedHeatAndMoistureFiniteElement} - Description,Inside Surface Max Temperature Limit{C}, Surface Convection Coefficient Lower Limit {W/m2-K}, Surface Convection Coefficient Upper Limit {W/m2-K}
Surface Heat Transfer Algorithm, CTF - ConductionTransferFunction,200,0.10,1000.0
! <Shading Summary>, Number of Fixed Detached Shades, Number of Building Detached Shades, Number of Attached Shades
 Shading Summary,0,2,0
! <Zone Summary>, Number of Zones, Number of Zone Surfaces, Number of SubSurfaces
 Zone Summary,55,497,40
! <Zone Information>,Zone Name,North Axis {deg},Origin X-Coordinate {m},Origin Y-Coordinate {m},Origin Z-Coordinate {m},Centroid X-Coordinate {m},Centroid Y-Coordinate {m},Centroid Z-Coordinate {m},Type,Zone Multiplier,Zone List Multiplier,Minimum X {m},Maximum X {m},Minimum Y {m},Maximum Y {m},Minimum Z {m},Maximum Z {m},Ceiling Height {m},Volume {m3},Zone Inside Convection Algorithm {Simple-Detailed-CeilingDiffuser-TrombeWall},Zone Outside Convection Algorithm {Simple-Detailed-Tarp-MoWitt-DOE-2-BLAST}, Floor Area {m2},Exterior Gross Wall Area {m2},Exterior Net Wall Area {m2},Exterior Window Area {m2}, Number of Surfaces, Number of SubSurfaces, Number of Shading SubSurfaces,  Part of Total Building Area
 Zone Information, BASEMENT,0.0,0.00,0.00,0.00,35.05,26.67,-1.22,1,1,1,0.00,70.10,0.00,53.34,-2.44,0.00,2.44,9120.27,TARP,DOE-2,3739.35,0.00,0.00,0.00,6,0,0,Yes
 Zone Information, CORRIDOR_FLR_1,0.0,0.00,0.00,0.00,34.29,26.67,2.13,1,1,1,28.96,39.62,0.00,53.34,0.00,4.27,4.27,2428.80,TARP,DOE-2,569.03,91.07,91.07,0.00,7,0,0,Yes
 Zone Information, CORRIDOR_FLR_2,0.0,0.00,0.00,0.00,34.29,26.67,6.40,1,1,1,28.96,39.62,0.00,53.34,4.27,8.54,4.27,2428.80,TARP,DOE-2,569.03,91.07,91.07,0.00,6,0,0,Yes
 Zone Information, CORRIDOR_FLR_5,0.0,0.00,0.00,0.00,21.12,34.61,19.21,1,1,1,9.14,39.62,0.00,53.34,17.07,21.34,4.27,2141.31,TARP,DOE-2,501.68,78.06,78.06,0.00,10,0,0,Yes
 Zone Information, CORRIDOR_NW_FLR_3,0.0,0.00,0.00,0.00,28.14,40.30,10.67,1,1,1,4.57,65.53,10.67,53.34,8.54,12.80,4.27,2418.88,TARP,DOE-2,566.71,45.53,45.53,0.00,15,0,0,Yes
 Zone Information, CORRIDOR_NW_FLR_4,0.0,0.00,0.00,0.00,28.14,40.30,14.94,1,1,1,4.57,65.53,10.67,53.34,12.80,17.07,4.27,2418.88,TARP,DOE-2,566.71,45.53,45.53,0.00,15,0,0,Yes
 Zone Information, CORRIDOR_SE_FLR_3,0.0,0.00,0.00,0.00,41.59,13.04,10.67,1,1,1,4.57,65.53,0.00,42.67,8.54,12.80,4.27,2418.88,TARP,DOE-2,566.71,45.53,45.53,0.00,15,0,0,Yes
 Zone Information, CORRIDOR_SE_FLR_4,0.0,0.00,0.00,0.00,41.59,13.04,14.94,1,1,1,4.57,65.53,0.00,42.67,12.80,17.07,4.27,2418.88,TARP,DOE-2,566.71,45.53,45.53,0.00,15,0,0,Yes
 Zone Information, DINING_FLR_5,0.0,0.00,0.00,0.00,54.86,11.43,19.21,1,1,1,39.62,70.10,0.00,22.86,17.07,21.34,4.27,2974.04,TARP,DOE-2,696.77,227.67,191.91,35.76,6,1,0,Yes
 Zone Information, ER_EXAM1_MULT4_FLR_1,0.0,0.00,0.00,0.00,42.67,2.29,2.13,1,4,1,39.62,45.72,0.00,4.57,0.00,4.27,4.27,118.96,TARP,DOE-2,27.87,26.02,26.02,0.00,6,0,0,Yes
 Zone Information, ER_EXAM3_MULT4_FLR_1,0.0,0.00,0.00,0.00,67.06,6.86,2.13,1,4,1,64.01,70.10,4.57,9.14,0.00,4.27,4.27,118.96,TARP,DOE-2,27.87,19.51,19.51,0.00,6,0,0,Yes
 Zone Information, ER_NURSESTN_LOBBY_FLR_1,0.0,0.00,0.00,0.00,58.35,26.67,2.13,1,1,1,39.62,70.10,4.57,48.77,0.00,4.27,4.27,5273.96,TARP,DOE-2,1235.61,110.58,80.16,30.42,10,1,0,Yes
 Zone Information, ER_TRAUMA1_FLR_1,0.0,0.00,0.00,0.00,67.06,2.29,2.13,1,1,1,64.01,70.10,0.00,4.57,0.00,4.27,4.27,118.96,TARP,DOE-2,27.87,45.53,45.53,0.00,6,0,0,Yes
 Zone Information, ER_TRAUMA2_FLR_1,0.0,0.00,0.00,0.00,67.06,51.05,2.13,1,1,1,64.01,70.10,48.77,53.34,0.00,4.27,4.27,118.96,TARP,DOE-2,27.87,45.53,45.53,0.00,6,0,0,Yes
 Zone Information, ER_TRIAGE_MULT4_FLR_1,0.0,0.00,0.00,0.00,42.67,51.05,2.13,1,4,1,39.62,45.72,48.77,53.34,0.00,4.27,4.27,118.96,TARP,DOE-2,27.87,26.02,26.02,0.00,6,0,0,Yes
 Zone Information, ICU_FLR_2,0.0,0.00,0.00,0.00,14.48,10.67,6.40,1,1,1,0.00,28.96,0.00,21.34,4.27,8.54,4.27,2637.66,TARP,DOE-2,617.96,214.68,189.65,25.03,6,1,0,Yes
 Zone Information, ICU_NURSESTN_LOBBY_FLR_2,0.0,0.00,0.00,0.00,16.76,35.05,6.40,1,1,1,4.57,28.96,21.34,48.77,4.27,8.54,4.27,2854.50,TARP,DOE-2,668.77,0.00,0.00,0.00,6,0,0,Yes
 Zone Information, IC_PATROOM1_MULT5_FLR_2,0.0,0.00,0.00,0.00,26.67,51.05,6.40,1,5,1,24.38,28.96,48.77,53.34,4.27,8.54,4.27,89.22,TARP,DOE-2,20.90,19.51,14.61,4.91,6,1,0,Yes
 Zone Information, IC_PATROOM2_FLR_2,0.0,0.00,0.00,0.00,3.05,51.05,6.40,1,1,1,0.00,6.10,48.77,53.34,4.27,8.54,4.27,118.96,TARP,DOE-2,27.87,45.53,34.09,11.44,6,2,0,Yes
 Zone Information, IC_PATROOM3_MULT6_FLR_2,0.0,0.00,0.00,0.00,2.29,46.48,6.40,1,6,1,0.00,4.57,44.20,48.77,4.27,8.54,4.27,89.22,TARP,DOE-2,20.90,19.51,14.61,4.91,6,1,0,Yes
 Zone Information, KITCHEN_FLR_5,0.0,0.00,0.00,0.00,54.86,38.10,19.21,1,1,1,39.62,70.10,22.86,53.34,17.07,21.34,4.27,3965.38,TARP,DOE-2,929.03,260.20,260.20,0.00,7,0,0,Yes
 Zone Information, LAB_FLR_3,0.0,0.00,0.00,0.00,17.40,20.75,10.67,1,1,1,9.14,28.96,10.67,33.58,8.54,12.80,4.27,1129.43,TARP,DOE-2,264.77,0.00,0.00,0.00,8,0,0,Yes
 Zone Information, LAB_FLR_4,0.0,0.00,0.00,0.00,17.40,20.75,14.94,1,1,1,9.14,28.96,10.67,33.58,12.80,17.07,4.27,1129.43,TARP,DOE-2,264.77,0.00,0.00,0.00,8,0,0,Yes
 Zone Information, LOBBY_RECORDS_FLR_1,0.0,0.00,0.00,0.00,14.17,16.75,2.13,1,1,1,0.00,28.96,0.00,53.34,0.00,4.27,4.27,6294.93,TARP,DOE-2,1474.81,409.78,347.15,62.63,11,1,0,Yes
 Zone Information, NURSESTN_LOBBY_FLR_3,0.0,0.00,0.00,0.00,31.62,25.31,10.67,1,1,1,9.14,60.96,10.67,42.67,8.54,12.80,4.27,3866.25,TARP,DOE-2,905.80,0.00,0.00,0.00,12,0,0,Yes
 Zone Information, NURSESTN_LOBBY_FLR_4,0.0,0.00,0.00,0.00,31.62,25.31,14.94,1,1,1,9.14,60.96,10.67,42.67,12.80,17.07,4.27,3866.25,TARP,DOE-2,905.80,0.00,0.00,0.00,12,0,0,Yes
 Zone Information, NURSESTN_LOBBY_FLR_5,0.0,0.00,0.00,0.00,27.43,21.34,19.21,1,1,1,15.24,39.62,0.00,42.67,17.07,21.34,4.27,4441.23,TARP,DOE-2,1040.51,104.08,104.08,0.00,7,0,0,Yes
 Zone Information, OR1_FLR_2,0.0,0.00,0.00,0.00,65.53,50.29,6.40,1,1,1,60.96,70.10,47.24,53.34,4.27,8.54,4.27,237.92,TARP,DOE-2,55.74,65.05,65.05,0.00,6,0,0,Yes
 Zone Information, OR2_MULT5_FLR_2,0.0,0.00,0.00,0.00,65.53,44.20,6.40,1,5,1,60.96,70.10,41.15,47.24,4.27,8.54,4.27,237.92,TARP,DOE-2,55.74,26.02,26.02,0.00,6,0,0,Yes
 Zone Information, OR3_FLR_2,0.0,0.00,0.00,0.00,44.20,50.29,6.40,1,1,1,39.62,48.77,47.24,53.34,4.27,8.54,4.27,237.92,TARP,DOE-2,55.74,39.03,39.03,0.00,6,0,0,Yes
 Zone Information, OR4_FLR_2,0.0,0.00,0.00,0.00,44.20,35.05,6.40,1,1,1,39.62,48.77,22.86,47.24,4.27,8.54,4.27,951.69,TARP,DOE-2,222.97,0.00,0.00,0.00,6,0,0,Yes
 Zone Information, OR_NURSESTN_LOBBY_FLR_2,0.0,0.00,0.00,0.00,54.78,23.18,6.40,1,1,1,39.62,70.10,0.00,53.34,4.27,8.54,4.27,4322.26,TARP,DOE-2,1012.64,182.14,146.37,35.76,10,1,0,Yes
 Zone Information, OFFICE1_FLR_5,0.0,0.00,0.00,0.00,4.57,3.81,19.21,1,1,1,0.00,9.14,0.00,7.62,17.07,21.34,4.27,297.48,TARP,DOE-2,69.70,71.56,53.58,17.98,6,2,0,Yes
 Zone Information, OFFICE1_MULT4_FLR_1,0.0,0.00,0.00,0.00,7.62,2.29,2.13,1,4,1,6.10,9.14,0.00,4.57,0.00,4.27,4.27,59.48,TARP,DOE-2,13.94,13.01,10.05,2.96,6,1,0,Yes
 Zone Information, OFFICE2_MULT5_FLR_5,0.0,0.00,0.00,0.00,4.57,11.43,19.21,1,5,1,0.00,9.14,7.62,15.24,17.07,21.34,4.27,297.35,TARP,DOE-2,69.68,32.52,24.34,8.17,6,1,0,Yes
 Zone Information, OFFICE3_FLR_5,0.0,0.00,0.00,0.00,4.57,49.53,19.21,1,1,1,0.00,9.14,45.72,53.34,17.07,21.34,4.27,297.40,TARP,DOE-2,69.68,71.55,53.57,17.98,6,2,0,Yes
 Zone Information, OFFICE4_MULT6_FLR_5,0.0,0.00,0.00,0.00,10.67,51.05,19.21,1,6,1,9.14,12.19,48.77,53.34,17.07,21.34,4.27,59.48,TARP,DOE-2,13.94,13.01,10.05,2.96,6,1,0,Yes
 Zone Information, PATROOM1_MULT10_FLR_3,0.0,0.00,0.00,0.00,41.91,2.29,10.67,1,10,1,39.62,44.20,0.00,4.57,8.54,12.80,4.27,89.22,TARP,DOE-2,20.90,19.51,14.61,4.91,6,1,0,Yes
 Zone Information, PATROOM1_MULT10_FLR_4,0.0,0.00,0.00,0.00,41.91,2.29,14.94,1,10,1,39.62,44.20,0.00,4.57,12.80,17.07,4.27,89.22,TARP,DOE-2,20.90,19.51,14.61,4.91,6,1,0,Yes
 Zone Information, PATROOM2_FLR_3,0.0,0.00,0.00,0.00,66.29,2.29,10.67,1,1,1,62.48,70.10,0.00,4.57,8.54,12.80,4.27,148.70,TARP,DOE-2,34.84,52.04,38.96,13.08,6,2,0,Yes
 Zone Information, PATROOM2_FLR_4,0.0,0.00,0.00,0.00,66.29,2.29,14.94,1,1,1,62.48,70.10,0.00,4.57,12.80,17.07,4.27,148.70,TARP,DOE-2,34.84,52.04,38.96,13.08,6,2,0,Yes
 Zone Information, PATROOM3_MULT10_FLR_3,0.0,0.00,0.00,0.00,67.82,6.78,10.67,1,10,1,65.53,70.10,4.57,8.99,8.54,12.80,4.27,86.25,TARP,DOE-2,20.21,18.87,14.13,4.74,6,1,0,Yes
 Zone Information, PATROOM3_MULT10_FLR_4,0.0,0.00,0.00,0.00,67.82,6.78,14.94,1,10,1,65.53,70.10,4.57,8.99,12.80,17.07,4.27,86.25,TARP,DOE-2,20.21,18.87,14.13,4.74,6,1,0,Yes
 Zone Information, PATROOM4_FLR_3,0.0,0.00,0.00,0.00,66.29,51.05,10.67,1,1,1,62.48,70.10,48.77,53.34,8.54,12.80,4.27,148.70,TARP,DOE-2,34.84,52.04,38.96,13.08,6,2,0,Yes
 Zone Information, PATROOM4_FLR_4,0.0,0.00,0.00,0.00,66.29,51.05,14.94,1,1,1,62.48,70.10,48.77,53.34,12.80,17.07,4.27,148.70,TARP,DOE-2,34.84,52.04,38.96,13.08,6,2,0,Yes
 Zone Information, PATROOM5_MULT10_FLR_3,0.0,0.00,0.00,0.00,41.91,51.05,10.67,1,10,1,39.62,44.20,48.77,53.34,8.54,12.80,4.27,89.22,TARP,DOE-2,20.90,19.51,14.61,4.91,6,1,0,Yes
 Zone Information, PATROOM5_MULT10_FLR_4,0.0,0.00,0.00,0.00,41.91,51.05,14.94,1,10,1,39.62,44.20,48.77,53.34,12.80,17.07,4.27,89.22,TARP,DOE-2,20.90,19.51,14.61,4.91,6,1,0,Yes
 Zone Information, PATROOM6_FLR_3,0.0,0.00,0.00,0.00,3.05,2.29,10.67,1,1,1,0.00,6.10,0.00,4.57,8.54,12.80,4.27,118.96,TARP,DOE-2,27.87,45.53,34.09,11.44,6,2,0,Yes
 Zone Information, PATROOM6_FLR_4,0.0,0.00,0.00,0.00,3.05,2.29,14.94,1,1,1,0.00,6.10,0.00,4.57,12.80,17.07,4.27,118.96,TARP,DOE-2,27.87,45.53,34.09,11.44,6,2,0,Yes
 Zone Information, PATROOM7_MULT10_FLR_3,0.0,0.00,0.00,0.00,2.29,6.78,10.67,1,10,1,0.00,4.57,4.57,8.99,8.54,12.80,4.27,86.25,TARP,DOE-2,20.21,18.87,14.13,4.74,6,1,0,Yes
 Zone Information, PATROOM7_MULT10_FLR_4,0.0,0.00,0.00,0.00,2.29,6.78,14.94,1,10,1,0.00,4.57,4.57,8.99,12.80,17.07,4.27,86.25,TARP,DOE-2,20.21,18.87,14.13,4.74,6,1,0,Yes
 Zone Information, PATROOM8_FLR_3,0.0,0.00,0.00,0.00,3.05,51.05,10.67,1,1,1,0.00,6.10,48.77,53.34,8.54,12.80,4.27,118.96,TARP,DOE-2,27.87,45.53,34.09,11.44,6,2,0,Yes
 Zone Information, PATROOM8_FLR_4,0.0,0.00,0.00,0.00,3.05,51.05,14.94,1,1,1,0.00,6.10,48.77,53.34,12.80,17.07,4.27,118.96,TARP,DOE-2,27.87,45.53,34.09,11.44,6,2,0,Yes
 Zone Information, PHYSTHERAPY_FLR_3,0.0,0.00,0.00,0.00,50.29,31.24,10.67,1,1,1,39.62,60.96,19.81,42.67,8.54,12.80,4.27,2081.82,TARP,DOE-2,487.74,0.00,0.00,0.00,6,0,0,Yes
 Zone Information, RADIOLOGY_FLR_4,0.0,0.00,0.00,0.00,50.29,31.24,14.94,1,1,1,39.62,60.96,19.81,42.67,12.80,17.07,4.27,2081.82,TARP,DOE-2,487.74,0.00,0.00,0.00,6,0,0,Yes
! <Zone Internal Gains/Equipment Information - Nominal>,Zone Name, Floor Area {m2},# Occupants,Area per Occupant {m2/person},Occupant per Area {person/m2},Interior Lighting {W/m2},Electric Load {W/m2},Gas Load {W/m2},Other Load {W/m2},Hot Water Eq {W/m2},Steam Equipment {W/m2},Sum Loads per Area {W/m2},Outdoor Controlled Baseboard Heat
 Zone Internal Gains, BASEMENT,3739.35,100.6,37.175,2.690E-002,11.840,8.070,0.000,0.000,0.000,0.000,19.910,No
 Zone Internal Gains, CORRIDOR_FLR_1,569.03,6.1,92.593,1.080E-002,10.760,0.000,0.000,0.000,0.000,0.000,10.760,No
 Zone Internal Gains, CORRIDOR_FLR_2,569.03,6.1,92.593,1.080E-002,10.760,0.000,0.000,0.000,0.000,0.000,10.760,No
 Zone Internal Gains, CORRIDOR_FLR_5,501.68,5.4,92.593,1.080E-002,10.760,0.000,0.000,0.000,0.000,0.000,10.760,No
 Zone Internal Gains, CORRIDOR_NW_FLR_3,566.71,6.1,92.593,1.080E-002,10.760,0.000,0.000,0.000,0.000,0.000,10.760,No
 Zone Internal Gains, CORRIDOR_NW_FLR_4,566.71,6.1,92.593,1.080E-002,10.760,0.000,0.000,0.000,0.000,0.000,10.760,No
 Zone Internal Gains, CORRIDOR_SE_FLR_3,566.71,6.1,92.593,1.080E-002,10.760,0.000,0.000,0.000,0.000,0.000,10.760,No
 Zone Internal Gains, CORRIDOR_SE_FLR_4,566.71,6.1,92.593,1.080E-002,10.760,0.000,0.000,0.000,0.000,0.000,10.760,No
 Zone Internal Gains, DINING_FLR_5,696.77,75.0,9.294,0.108,9.680,10.760,0.000,0.000,0.000,0.000,20.440,No
 Zone Internal Gains, ER_EXAM1_MULT4_FLR_1,27.87,6.0,4.651,0.215,29.050,16.040,0.000,0.000,0.000,0.000,45.090,No
 Zone Internal Gains, ER_EXAM3_MULT4_FLR_1,27.87,6.0,4.651,0.215,29.050,16.040,0.000,0.000,0.000,0.000,45.090,No
 Zone Internal Gains, ER_NURSESTN_LOBBY_FLR_1,1235.61,17.7,69.930,1.430E-002,12.050,14.630,0.000,0.000,0.000,0.000,26.680,No
 Zone Internal Gains, ER_TRAUMA1_FLR_1,27.87,6.0,4.651,0.215,29.050,43.040,0.000,0.000,0.000,0.000,72.090,No
 Zone Internal Gains, ER_TRAUMA2_FLR_1,27.87,6.0,4.651,0.215,29.050,43.040,0.000,0.000,0.000,0.000,72.090,No
 Zone Internal Gains, ER_TRIAGE_MULT4_FLR_1,27.87,6.0,4.651,0.215,29.050,29.050,0.000,0.000,0.000,0.000,58.100,No
 Zone Internal Gains, ICU_FLR_2,617.96,33.2,18.587,5.380E-002,8.610,32.280,0.000,0.000,0.000,0.000,40.890,No
 Zone Internal Gains, ICU_NURSESTN_LOBBY_FLR_2,668.77,9.6,69.930,1.430E-002,12.050,21.520,0.000,0.000,0.000,0.000,33.570,No
 Zone Internal Gains, IC_PATROOM1_MULT5_FLR_2,20.90,1.1,18.587,5.380E-002,8.610,32.280,0.000,0.000,0.000,0.000,40.890,No
 Zone Internal Gains, IC_PATROOM2_FLR_2,27.87,1.5,18.587,5.380E-002,8.610,32.280,0.000,0.000,0.000,0.000,40.890,No
 Zone Internal Gains, IC_PATROOM3_MULT6_FLR_2,20.90,1.1,18.587,5.380E-002,8.610,32.280,0.000,0.000,0.000,0.000,40.890,No
 Zone Internal Gains, KITCHEN_FLR_5,929.03,50.0,18.587,5.380E-002,12.910,81.696,304.870,0.000,0.000,0.000,399.476,No
 Zone Internal Gains, LAB_FLR_3,264.77,14.2,18.587,5.380E-002,15.060,43.040,0.000,0.000,0.000,0.000,58.100,No
 Zone Internal Gains, LAB_FLR_4,264.77,14.2,18.587,5.380E-002,15.060,43.040,0.000,0.000,0.000,0.000,58.100,No
 Zone Internal Gains, LOBBY_RECORDS_FLR_1,1474.81,21.1,69.930,1.430E-002,15.820,1.080,0.000,0.000,0.000,0.000,16.900,No
 Zone Internal Gains, NURSESTN_LOBBY_FLR_3,905.80,13.0,69.930,1.430E-002,12.700,11.190,0.000,0.000,0.000,0.000,23.890,No
 Zone Internal Gains, NURSESTN_LOBBY_FLR_4,905.80,13.0,69.930,1.430E-002,12.700,11.190,0.000,0.000,0.000,0.000,23.890,No
 Zone Internal Gains, NURSESTN_LOBBY_FLR_5,1040.51,14.9,69.930,1.430E-002,12.700,11.190,0.000,0.000,0.000,0.000,23.890,No
 Zone Internal Gains, OR1_FLR_2,55.74,3.0,18.587,5.380E-002,23.670,43.040,0.000,0.000,0.000,0.000,66.710,No
 Zone Internal Gains, OR2_MULT5_FLR_2,55.74,3.0,18.587,5.380E-002,23.670,43.040,0.000,0.000,0.000,0.000,66.710,No
 Zone Internal Gains, OR3_FLR_2,55.74,3.0,18.587,5.380E-002,23.670,43.040,0.000,0.000,0.000,0.000,66.710,No
 Zone Internal Gains, OR4_FLR_2,222.97,12.0,18.587,5.380E-002,23.670,43.040,0.000,0.000,0.000,0.000,66.710,No
 Zone Internal Gains, OR_NURSESTN_LOBBY_FLR_2,1012.64,14.5,69.930,1.430E-002,12.700,11.190,0.000,0.000,0.000,0.000,23.890,No
 Zone Internal Gains, OFFICE1_FLR_5,69.70,5.2,13.280,7.530E-002,11.840,10.760,0.000,0.000,0.000,0.000,22.600,No
 Zone Internal Gains, OFFICE1_MULT4_FLR_1,13.94,1.0,13.280,7.530E-002,11.840,10.760,0.000,0.000,0.000,0.000,22.600,No
 Zone Internal Gains, OFFICE2_MULT5_FLR_5,69.68,5.2,13.280,7.530E-002,11.840,10.760,0.000,0.000,0.000,0.000,22.600,No
 Zone Internal Gains, OFFICE3_FLR_5,69.68,5.2,13.280,7.530E-002,11.840,10.760,0.000,0.000,0.000,0.000,22.600,No
 Zone Internal Gains, OFFICE4_MULT6_FLR_5,13.94,1.0,13.280,7.530E-002,11.840,10.760,0.000,0.000,0.000,0.000,22.600,No
 Zone Internal Gains, PATROOM1_MULT10_FLR_3,20.90,1.1,18.587,5.380E-002,7.530,21.520,0.000,0.000,0.000,0.000,29.050,No
 Zone Internal Gains, PATROOM1_MULT10_FLR_4,20.90,1.1,18.587,5.380E-002,7.530,21.520,0.000,0.000,0.000,0.000,29.050,No
 Zone Internal Gains, PATROOM2_FLR_3,34.84,1.9,18.587,5.380E-002,7.530,21.520,0.000,0.000,0.000,0.000,29.050,No
 Zone Internal Gains, PATROOM2_FLR_4,34.84,1.9,18.587,5.380E-002,7.530,21.520,0.000,0.000,0.000,0.000,29.050,No
 Zone Internal Gains, PATROOM3_MULT10_FLR_3,20.21,1.1,18.587,5.380E-002,7.530,21.520,0.000,0.000,0.000,0.000,29.050,No
 Zone Internal Gains, PATROOM3_MULT10_FLR_4,20.21,1.1,18.587,5.380E-002,7.530,21.520,0.000,0.000,0.000,0.000,29.050,No
 Zone Internal Gains, PATROOM4_FLR_3,34.84,1.9,18.587,5.380E-002,7.530,21.520,0.000,0.000,0.000,0.000,29.050,No
 Zone Internal Gains, PATROOM4_FLR_4,34.84,1.9,18.587,5.380E-002,7.530,21.520,0.000,0.000,0.000,0.000,29.050,No
 Zone Internal Gains, PATROOM5_MULT10_FLR_3,20.90,1.1,18.587,5.380E-002,7.530,21.520,0.000,0.000,0.000,0.000,29.050,No
 Zone Internal Gains, PATROOM5_MULT10_FLR_4,20.90,1.1,18.587,5.380E-002,7.530,21.520,0.000,0.000,0.000,0.000,29.050,No
 Zone Internal Gains, PATROOM6_FLR_3,27.87,1.5,18.587,5.380E-002,7.530,21.520,0.000,0.000,0.000,0.000,29.050,No
 Zone Internal Gains, PATROOM6_FLR_4,27.87,1.5,18.587,5.380E-002,7.530,21.520,0.000,0.000,0.000,0.000,29.050,No
 Zone Internal Gains, PATROOM7_MULT10_FLR_3,20.21,1.1,18.587,5.380E-002,7.530,21.520,0.000,0.000,0.000,0.000,29.050,No
 Zone Internal Gains, PATROOM7_MULT10_FLR_4,20.21,1.1,18.587,5.380E-002,7.530,21.520,0.000,0.000,0.000,0.000,29.050,No
 Zone Internal Gains, PATROOM8_FLR_3,27.87,1.5,18.587,5.380E-002,7.530,21.520,0.000,0.000,0.000,0.000,29.050,No
 Zone Internal Gains, PATROOM8_FLR_4,27.87,1.5,18.587,5.380E-002,7.530,21.520,0.000,0.000,0.000,0.000,29.050,No
 Zone Internal Gains, PHYSTHERAPY_FLR_3,487.74,26.2,18.587,5.380E-002,9.680,16.140,0.000,0.000,0.000,0.000,25.820,No
 Zone Internal Gains, RADIOLOGY_FLR_4,487.74,26.2,18.587,5.380E-002,4.300,53.080,0.000,0.000,0.000,0.000,57.380,No
! <People Internal Gains - Nominal>,Name,Schedule Name,Zone Name,Zone Floor Area {m2},# Zone Occupants,Number of People {},People/Floor Area {person/m2},Floor Area per person {m2/person},Fraction Radiant,Fraction Convected,Sensible Fraction Calculation,Activity level,ASHRAE 55 Warnings,Carbon Dioxide Generation Rate,Nominal Minimum Number of People,Nominal Maximum Number of People,MRT Calculation Type,Work Efficiency, Clothing Insulation Calculation Method,Clothing Insulation Calculation Method Schedule,Clothing,Air Velocity,Fanger Calculation,Pierce Calculation,KSU Calculation
 People Internal Gains, BASEMENT PEOPLE,ADMIN_OCC_SCH,BASEMENT,3739.35,100.6,100.6,2.690E-002,37.175,0.300,0.700,AutoCalculate,ACTIVITY_SCH,No,3.8200E-008,0,91,Zone Averaged,WORK_EFF_SCH,Clothing Insulation Schedule,N/A,CLOTHING_SCH,AIR_VELO_SCH,Yes,No,No
 People Internal Gains, CORRIDOR_FLR_1 PEOPLE,ADMIN_OCC_SCH,CORRIDOR_FLR_1,569.03,6.1,6.1,1.080E-002,92.593,0.300,0.700,AutoCalculate,ACTIVITY_SCH,No,3.8200E-008,0,6,Zone Averaged,WORK_EFF_SCH,Clothing Insulation Schedule,N/A,CLOTHING_SCH,AIR_VELO_SCH,Yes,No,No
 People Internal Gains, CORRIDOR_FLR_2 PEOPLE,ADMIN_OCC_SCH,CORRIDOR_FLR_2,569.03,6.1,6.1,1.080E-002,92.593,0.300,0.700,AutoCalculate,ACTIVITY_SCH,No,3.8200E-008,0,6,Zone Averaged,WORK_EFF_SCH,Clothing Insulation Schedule,N/A,CLOTHING_SCH,AIR_VELO_SCH,Yes,No,No
 People Internal Gains, CORRIDOR_FLR_5 PEOPLE,ADMIN_OCC_SCH,CORRIDOR_FLR_5,501.68,5.4,5.4,1.080E-002,92.593,0.300,0.700,AutoCalculate,ACTIVITY_SCH,No,3.8200E-008,0,5,Zone Averaged,WORK_EFF_SCH,Clothing Insulation Schedule,N/A,CLOTHING_SCH,AIR_VELO_SCH,Yes,No,No
 People Internal Gains, CORRIDOR_NW_FLR_3 PEOPLE,ADMIN_OCC_SCH,CORRIDOR_NW_FLR_3,566.71,6.1,6.1,1.080E-002,92.593,0.300,0.700,AutoCalculate,ACTIVITY_SCH,No,3.8200E-008,0,6,Zone Averaged,WORK_EFF_SCH,Clothing Insulation Schedule,N/A,CLOTHING_SCH,AIR_VELO_SCH,Yes,No,No
 People Internal Gains, CORRIDOR_NW_FLR_4 PEOPLE,ADMIN_OCC_SCH,CORRIDOR_NW_FLR_4,566.71,6.1,6.1,1.080E-002,92.593,0.300,0.700,AutoCalculate,ACTIVITY_SCH,No,3.8200E-008,0,6,Zone Averaged,WORK_EFF_SCH,Clothing Insulation Schedule,N/A,CLOTHING_SCH,AIR_VELO_SCH,Yes,No,No
 People Internal Gains, CORRIDOR_SE_FLR_3 PEOPLE,ADMIN_OCC_SCH,CORRIDOR_SE_FLR_3,566.71,6.1,6.1,1.080E-002,92.593,0.300,0.700,AutoCalculate,ACTIVITY_SCH,No,3.8200E-008,0,6,Zone Averaged,WORK_EFF_SCH,Clothing Insulation Schedule,N/A,CLOTHING_SCH,AIR_VELO_SCH,Yes,No,No
 People Internal Gains, CORRIDOR_SE_FLR_4 PEOPLE,ADMIN_OCC_SCH,CORRIDOR_SE_FLR_4,566.71,6.1,6.1,1.080E-002,92.593,0.300,0.700,AutoCalculate,ACTIVITY_SCH,No,3.8200E-008,0,6,Zone Averaged,WORK_EFF_SCH,Clothing Insulation Schedule,N/A,CLOTHING_SCH,AIR_VELO_SCH,Yes,No,No
 People Internal Gains, DINING_FLR_5 PEOPLE,ADMIN_OCC_SCH,DINING_FLR_5,696.77,75.0,75.0,0.108,9.294,0.300,0.700,AutoCalculate,ACTIVITY_SCH,No,3.8200E-008,0,67,Zone Averaged,WORK_EFF_SCH,Clothing Insulation Schedule,N/A,CLOTHING_SCH,AIR_VELO_SCH,Yes,No,No
 People Internal Gains, ER_EXAM1_MULT4_FLR_1 PEOPLE,CRITICAL_OCC_SCH,ER_EXAM1_MULT4_FLR_1,27.87,6.0,6.0,0.215,4.651,0.300,0.700,AutoCalculate,ACTIVITY_SCH,No,3.8200E-008,2,5,Zone Averaged,WORK_EFF_SCH,Clothing Insulation Schedule,N/A,CLOTHING_SCH,AIR_VELO_SCH,Yes,No,No
 People Internal Gains, ER_EXAM3_MULT4_FLR_1 PEOPLE,CRITICAL_OCC_SCH,ER_EXAM3_MULT4_FLR_1,27.87,6.0,6.0,0.215,4.651,0.300,0.700,AutoCalculate,ACTIVITY_SCH,No,3.8200E-008,2,5,Zone Averaged,WORK_EFF_SCH,Clothing Insulation Schedule,N/A,CLOTHING_SCH,AIR_VELO_SCH,Yes,No,No
 People Internal Gains, ER_NURSESTN_LOBBY_FLR_1 PEOPLE,ADMIN_OCC_SCH,ER_NURSESTN_LOBBY_FLR_1,1235.61,17.7,17.7,1.430E-002,69.930,0.300,0.700,AutoCalculate,ACTIVITY_SCH,No,3.8200E-008,0,16,Zone Averaged,WORK_EFF_SCH,Clothing Insulation Schedule,N/A,CLOTHING_SCH,AIR_VELO_SCH,Yes,No,No
 People Internal Gains, ER_TRAUMA1_FLR_1 PEOPLE,CRITICAL_OCC_SCH,ER_TRAUMA1_FLR_1,27.87,6.0,6.0,0.215,4.651,0.300,0.700,AutoCalculate,ACTIVITY_SCH,No,3.8200E-008,2,5,Zone Averaged,WORK_EFF_SCH,Clothing Insulation Schedule,N/A,CLOTHING_SCH,AIR_VELO_SCH,Yes,No,No
 People Internal Gains, ER_TRAUMA2_FLR_1 PEOPLE,CRITICAL_OCC_SCH,ER_TRAUMA2_FLR_1,27.87,6.0,6.0,0.215,4.651,0.300,0.700,AutoCalculate,ACTIVITY_SCH,No,3.8200E-008,2,5,Zone Averaged,WORK_EFF_SCH,Clothing Insulation Schedule,N/A,CLOTHING_SCH,AIR_VELO_SCH,Yes,No,No
 People Internal Gains, ER_TRIAGE_MULT4_FLR_1 PEOPLE,CRITICAL_OCC_SCH,ER_TRIAGE_MULT4_FLR_1,27.87,6.0,6.0,0.215,4.651,0.300,0.700,AutoCalculate,ACTIVITY_SCH,No,3.8200E-008,2,5,Zone Averaged,WORK_EFF_SCH,Clothing Insulation Schedule,N/A,CLOTHING_SCH,AIR_VELO_SCH,Yes,No,No
 People Internal Gains, ICU_FLR_2 PEOPLE,CRITICAL_OCC_SCH,ICU_FLR_2,617.96,33.2,33.2,5.380E-002,18.587,0.300,0.700,AutoCalculate,ACTIVITY_SCH,No,3.8200E-008,13,30,Zone Averaged,WORK_EFF_SCH,Clothing Insulation Schedule,N/A,CLOTHING_SCH,AIR_VELO_SCH,Yes,No,No
 People Internal Gains, ICU_NURSESTN_LOBBY_FLR_2 PEOPLE,ADMIN_OCC_SCH,ICU_NURSESTN_LOBBY_FLR_2,668.77,9.6,9.6,1.430E-002,69.930,0.300,0.700,AutoCalculate,ACTIVITY_SCH,No,3.8200E-008,0,9,Zone Averaged,WORK_EFF_SCH,Clothing Insulation Schedule,N/A,CLOTHING_SCH,AIR_VELO_SCH,Yes,No,No
 People Internal Gains, IC_PATROOM1_MULT5_FLR_2 PEOPLE,CRITICAL_OCC_SCH,IC_PATROOM1_MULT5_FLR_2,20.90,1.1,1.1,5.380E-002,18.587,0.300,0.700,AutoCalculate,ACTIVITY_SCH,No,3.8200E-008,0,1,Zone Averaged,WORK_EFF_SCH,Clothing Insulation Schedule,N/A,CLOTHING_SCH,AIR_VELO_SCH,Yes,No,No
 People Internal Gains, IC_PATROOM2_FLR_2 PEOPLE,CRITICAL_OCC_SCH,IC_PATROOM2_FLR_2,27.87,1.5,1.5,5.380E-002,18.587,0.300,0.700,AutoCalculate,ACTIVITY_SCH,No,3.8200E-008,1,1,Zone Averaged,WORK_EFF_SCH,Clothing Insulation Schedule,N/A,CLOTHING_SCH,AIR_VELO_SCH,Yes,No,No
 People Internal Gains, IC_PATROOM3_MULT6_FLR_2 PEOPLE,CRITICAL_OCC_SCH,IC_PATROOM3_MULT6_FLR_2,20.90,1.1,1.1,5.380E-002,18.587,0.300,0.700,AutoCalculate,ACTIVITY_SCH,No,3.8200E-008,0,1,Zone Averaged,WORK_EFF_SCH,Clothing Insulation Schedule,N/A,CLOTHING_SCH,AIR_VELO_SCH,Yes,No,No
 People Internal Gains, KITCHEN_FLR_5 PEOPLE,ADMIN_OCC_SCH,KITCHEN_FLR_5,929.03,50.0,50.0,5.380E-002,18.587,0.300,0.700,AutoCalculate,ACTIVITY_SCH,No,3.8200E-008,0,45,Zone Averaged,WORK_EFF_SCH,Clothing Insulation Schedule,N/A,CLOTHING_SCH,AIR_VELO_SCH,Yes,No,No
 People Internal Gains, LAB_FLR_3 PEOPLE,ADMIN_OCC_SCH,LAB_FLR_3,264.77,14.2,14.2,5.380E-002,18.587,0.300,0.700,AutoCalculate,ACTIVITY_SCH,No,3.8200E-008,0,13,Zone Averaged,WORK_EFF_SCH,Clothing Insulation Schedule,N/A,CLOTHING_SCH,AIR_VELO_SCH,Yes,No,No
 People Internal Gains, LAB_FLR_4 PEOPLE,ADMIN_OCC_SCH,LAB_FLR_4,264.77,14.2,14.2,5.380E-002,18.587,0.300,0.700,AutoCalculate,ACTIVITY_SCH,No,3.8200E-008,0,13,Zone Averaged,WORK_EFF_SCH,Clothing Insulation Schedule,N/A,CLOTHING_SCH,AIR_VELO_SCH,Yes,No,No
 People Internal Gains, LOBBY_RECORDS_FLR_1 PEOPLE,ADMIN_OCC_SCH,LOBBY_RECORDS_FLR_1,1474.81,21.1,21.1,1.430E-002,69.930,0.300,0.700,AutoCalculate,ACTIVITY_SCH,No,3.8200E-008,0,19,Zone Averaged,WORK_EFF_SCH,Clothing Insulation Schedule,N/A,CLOTHING_SCH,AIR_VELO_SCH,Yes,No,No
 People Internal Gains, NURSESTN_LOBBY_FLR_3 PEOPLE,ADMIN_OCC_SCH,NURSESTN_LOBBY_FLR_3,905.80,13.0,13.0,1.430E-002,69.930,0.300,0.700,AutoCalculate,ACTIVITY_SCH,No,3.8200E-008,0,12,Zone Averaged,WORK_EFF_SCH,Clothing Insulation Schedule,N/A,CLOTHING_SCH,AIR_VELO_SCH,Yes,No,No
 People Internal Gains, NURSESTN_LOBBY_FLR_4 PEOPLE,ADMIN_OCC_SCH,NURSESTN_LOBBY_FLR_4,905.80,13.0,13.0,1.430E-002,69.930,0.300,0.700,AutoCalculate,ACTIVITY_SCH,No,3.8200E-008,0,12,Zone Averaged,WORK_EFF_SCH,Clothing Insulation Schedule,N/A,CLOTHING_SCH,AIR_VELO_SCH,Yes,No,No
 People Internal Gains, NURSESTN_LOBBY_FLR_5 PEOPLE,ADMIN_OCC_SCH,NURSESTN_LOBBY_FLR_5,1040.51,14.9,14.9,1.430E-002,69.930,0.300,0.700,AutoCalculate,ACTIVITY_SCH,No,3.8200E-008,0,13,Zone Averaged,WORK_EFF_SCH,Clothing Insulation Schedule,N/A,CLOTHING_SCH,AIR_VELO_SCH,Yes,No,No
 People Internal Gains, OR1_FLR_2 PEOPLE,CRITICAL_OCC_SCH,OR1_FLR_2,55.74,3.0,3.0,5.380E-002,18.587,0.300,0.700,AutoCalculate,ACTIVITY_SCH,No,3.8200E-008,1,3,Zone Averaged,WORK_EFF_SCH,Clothing Insulation Schedule,N/A,CLOTHING_SCH,AIR_VELO_SCH,Yes,No,No
 People Internal Gains, OR2_MULT5_FLR_2 PEOPLE,CRITICAL_OCC_SCH,OR2_MULT5_FLR_2,55.74,3.0,3.0,5.380E-002,18.587,0.300,0.700,AutoCalculate,ACTIVITY_SCH,No,3.8200E-008,1,3,Zone Averaged,WORK_EFF_SCH,Clothing Insulation Schedule,N/A,CLOTHING_SCH,AIR_VELO_SCH,Yes,No,No
 People Internal Gains, OR3_FLR_2 PEOPLE,CRITICAL_OCC_SCH,OR3_FLR_2,55.74,3.0,3.0,5.380E-002,18.587,0.300,0.700,AutoCalculate,ACTIVITY_SCH,No,3.8200E-008,1,3,Zone Averaged,WORK_EFF_SCH,Clothing Insulation Schedule,N/A,CLOTHING_SCH,AIR_VELO_SCH,Yes,No,No
 People Internal Gains, OR4_FLR_2 PEOPLE,CRITICAL_OCC_SCH,OR4_FLR_2,222.97,12.0,12.0,5.380E-002,18.587,0.300,0.700,AutoCalculate,ACTIVITY_SCH,No,3.8200E-008,5,11,Zone Averaged,WORK_EFF_SCH,Clothing Insulation Schedule,N/A,CLOTHING_SCH,AIR_VELO_SCH,Yes,No,No
 People Internal Gains, OR_NURSESTN_LOBBY_FLR_2 PEOPLE,ADMIN_OCC_SCH,OR_NURSESTN_LOBBY_FLR_2,1012.64,14.5,14.5,1.430E-002,69.930,0.300,0.700,AutoCalculate,ACTIVITY_SCH,No,3.8200E-008,0,13,Zone Averaged,WORK_EFF_SCH,Clothing Insulation Schedule,N/A,CLOTHING_SCH,AIR_VELO_SCH,Yes,No,No
 People Internal Gains, OFFICE1_FLR_5 PEOPLE,ADMIN_OCC_SCH,OFFICE1_FLR_5,69.70,5.2,5.2,7.530E-002,13.280,0.300,0.700,AutoCalculate,ACTIVITY_SCH,No,3.8200E-008,0,5,Zone Averaged,WORK_EFF_SCH,Clothing Insulation Schedule,N/A,CLOTHING_SCH,AIR_VELO_SCH,Yes,No,No
 People Internal Gains, OFFICE1_MULT4_FLR_1 PEOPLE,ADMIN_OCC_SCH,OFFICE1_MULT4_FLR_1,13.94,1.0,1.0,7.530E-002,13.280,0.300,0.700,AutoCalculate,ACTIVITY_SCH,No,3.8200E-008,0,1,Zone Averaged,WORK_EFF_SCH,Clothing Insulation Schedule,N/A,CLOTHING_SCH,AIR_VELO_SCH,Yes,No,No
 People Internal Gains, OFFICE2_MULT5_FLR_5 PEOPLE,ADMIN_OCC_SCH,OFFICE2_MULT5_FLR_5,69.68,5.2,5.2,7.530E-002,13.280,0.300,0.700,AutoCalculate,ACTIVITY_SCH,No,3.8200E-008,0,5,Zone Averaged,WORK_EFF_SCH,Clothing Insulation Schedule,N/A,CLOTHING_SCH,AIR_VELO_SCH,Yes,No,No
 People Internal Gains, OFFICE3_FLR_5 PEOPLE,ADMIN_OCC_SCH,OFFICE3_FLR_5,69.68,5.2,5.2,7.530E-002,13.280,0.300,0.700,AutoCalculate,ACTIVITY_SCH,No,3.8200E-008,0,5,Zone Averaged,WORK_EFF_SCH,Clothing Insulation Schedule,N/A,CLOTHING_SCH,AIR_VELO_SCH,Yes,No,No
 People Internal Gains, OFFICE4_MULT6_FLR_5 PEOPLE,ADMIN_OCC_SCH,OFFICE4_MULT6_FLR_5,13.94,1.0,1.0,7.530E-002,13.280,0.300,0.700,AutoCalculate,ACTIVITY_SCH,No,3.8200E-008,0,1,Zone Averaged,WORK_EFF_SCH,Clothing Insulation Schedule,N/A,CLOTHING_SCH,AIR_VELO_SCH,Yes,No,No
 People Internal Gains, PATROOM1_MULT10_FLR_3 PEOPLE,CRITICAL_OCC_SCH,PATROOM1_MULT10_FLR_3,20.90,1.1,1.1,5.380E-002,18.587,0.300,0.700,AutoCalculate,ACTIVITY_SCH,No,3.8200E-008,0,1,Zone Averaged,WORK_EFF_SCH,Clothing Insulation Schedule,N/A,CLOTHING_SCH,AIR_VELO_SCH,Yes,No,No
 People Internal Gains, PATROOM1_MULT10_FLR_4 PEOPLE,CRITICAL_OCC_SCH,PATROOM1_MULT10_FLR_4,20.90,1.1,1.1,5.380E-002,18.587,0.300,0.700,AutoCalculate,ACTIVITY_SCH,No,3.8200E-008,0,1,Zone Averaged,WORK_EFF_SCH,Clothing Insulation Schedule,N/A,CLOTHING_SCH,AIR_VELO_SCH,Yes,No,No
 People Internal Gains, PATROOM2_FLR_3 PEOPLE,CRITICAL_OCC_SCH,PATROOM2_FLR_3,34.84,1.9,1.9,5.380E-002,18.587,0.300,0.700,AutoCalculate,ACTIVITY_SCH,No,3.8200E-008,1,2,Zone Averaged,WORK_EFF_SCH,Clothing Insulation Schedule,N/A,CLOTHING_SCH,AIR_VELO_SCH,Yes,No,No
 People Internal Gains, PATROOM2_FLR_4 PEOPLE,CRITICAL_OCC_SCH,PATROOM2_FLR_4,34.84,1.9,1.9,5.380E-002,18.587,0.300,0.700,AutoCalculate,ACTIVITY_SCH,No,3.8200E-008,1,2,Zone Averaged,WORK_EFF_SCH,Clothing Insulation Schedule,N/A,CLOTHING_SCH,AIR_VELO_SCH,Yes,No,No
 People Internal Gains, PATROOM3_MULT10_FLR_3 PEOPLE,CRITICAL_OCC_SCH,PATROOM3_MULT10_FLR_3,20.21,1.1,1.1,5.380E-002,18.587,0.300,0.700,AutoCalculate,ACTIVITY_SCH,No,3.8200E-008,0,1,Zone Averaged,WORK_EFF_SCH,Clothing Insulation Schedule,N/A,CLOTHING_SCH,AIR_VELO_SCH,Yes,No,No
 People Internal Gains, PATROOM3_MULT10_FLR_4 PEOPLE,CRITICAL_OCC_SCH,PATROOM3_MULT10_FLR_4,20.21,1.1,1.1,5.380E-002,18.587,0.300,0.700,AutoCalculate,ACTIVITY_SCH,No,3.8200E-008,0,1,Zone Averaged,WORK_EFF_SCH,Clothing Insulation Schedule,N/A,CLOTHING_SCH,AIR_VELO_SCH,Yes,No,No
 People Internal Gains, PATROOM4_FLR_3 PEOPLE,CRITICAL_OCC_SCH,PATROOM4_FLR_3,34.84,1.9,1.9,5.380E-002,18.587,0.300,0.700,AutoCalculate,ACTIVITY_SCH,No,3.8200E-008,1,2,Zone Averaged,WORK_EFF_SCH,Clothing Insulation Schedule,N/A,CLOTHING_SCH,AIR_VELO_SCH,Yes,No,No
 People Internal Gains, PATROOM4_FLR_4 PEOPLE,CRITICAL_OCC_SCH,PATROOM4_FLR_4,34.84,1.9,1.9,5.380E-002,18.587,0.300,0.700,AutoCalculate,ACTIVITY_SCH,No,3.8200E-008,1,2,Zone Averaged,WORK_EFF_SCH,Clothing Insulation Schedule,N/A,CLOTHING_SCH,AIR_VELO_SCH,Yes,No,No
 People Internal Gains, PATROOM5_MULT10_FLR_3 PEOPLE,CRITICAL_OCC_SCH,PATROOM5_MULT10_FLR_3,20.90,1.1,1.1,5.380E-002,18.587,0.300,0.700,AutoCalculate,ACTIVITY_SCH,No,3.8200E-008,0,1,Zone Averaged,WORK_EFF_SCH,Clothing Insulation Schedule,N/A,CLOTHING_SCH,AIR_VELO_SCH,Yes,No,No
 People Internal Gains, PATROOM5_MULT10_FLR_4 PEOPLE,CRITICAL_OCC_SCH,PATROOM5_MULT10_FLR_4,20.90,1.1,1.1,5.380E-002,18.587,0.300,0.700,AutoCalculate,ACTIVITY_SCH,No,3.8200E-008,0,1,Zone Averaged,WORK_EFF_SCH,Clothing Insulation Schedule,N/A,CLOTHING_SCH,AIR_VELO_SCH,Yes,No,No
 People Internal Gains, PATROOM6_FLR_3 PEOPLE,CRITICAL_OCC_SCH,PATROOM6_FLR_3,27.87,1.5,1.5,5.380E-002,18.587,0.300,0.700,AutoCalculate,ACTIVITY_SCH,No,3.8200E-008,1,1,Zone Averaged,WORK_EFF_SCH,Clothing Insulation Schedule,N/A,CLOTHING_SCH,AIR_VELO_SCH,Yes,No,No
 People Internal Gains, PATROOM6_FLR_4 PEOPLE,CRITICAL_OCC_SCH,PATROOM6_FLR_4,27.87,1.5,1.5,5.380E-002,18.587,0.300,0.700,AutoCalculate,ACTIVITY_SCH,No,3.8200E-008,1,1,Zone Averaged,WORK_EFF_SCH,Clothing Insulation Schedule,N/A,CLOTHING_SCH,AIR_VELO_SCH,Yes,No,No
 People Internal Gains, PATROOM7_MULT10_FLR_3 PEOPLE,CRITICAL_OCC_SCH,PATROOM7_MULT10_FLR_3,20.21,1.1,1.1,5.380E-002,18.587,0.300,0.700,AutoCalculate,ACTIVITY_SCH,No,3.8200E-008,0,1,Zone Averaged,WORK_EFF_SCH,Clothing Insulation Schedule,N/A,CLOTHING_SCH,AIR_VELO_SCH,Yes,No,No
 People Internal Gains, PATROOM7_MULT10_FLR_4 PEOPLE,CRITICAL_OCC_SCH,PATROOM7_MULT10_FLR_4,20.21,1.1,1.1,5.380E-002,18.587,0.300,0.700,AutoCalculate,ACTIVITY_SCH,No,3.8200E-008,0,1,Zone Averaged,WORK_EFF_SCH,Clothing Insulation Schedule,N/A,CLOTHING_SCH,AIR_VELO_SCH,Yes,No,No
 People Internal Gains, PATROOM8_FLR_3 PEOPLE,CRITICAL_OCC_SCH,PATROOM8_FLR_3,27.87,1.5,1.5,5.380E-002,18.587,0.300,0.700,AutoCalculate,ACTIVITY_SCH,No,3.8200E-008,1,1,Zone Averaged,WORK_EFF_SCH,Clothing Insulation Schedule,N/A,CLOTHING_SCH,AIR_VELO_SCH,Yes,No,No
 People Internal Gains, PATROOM8_FLR_4 PEOPLE,CRITICAL_OCC_SCH,PATROOM8_FLR_4,27.87,1.5,1.5,5.380E-002,18.587,0.300,0.700,AutoCalculate,ACTIVITY_SCH,No,3.8200E-008,1,1,Zone Averaged,WORK_EFF_SCH,Clothing Insulation Schedule,N/A,CLOTHING_SCH,AIR_VELO_SCH,Yes,No,No
 People Internal Gains, PHYSTHERAPY_FLR_3 PEOPLE,ADMIN_OCC_SCH,PHYSTHERAPY_FLR_3,487.74,26.2,26.2,5.380E-002,18.587,0.300,0.700,AutoCalculate,ACTIVITY_SCH,No,3.8200E-008,0,24,Zone Averaged,WORK_EFF_SCH,Clothing Insulation Schedule,N/A,CLOTHING_SCH,AIR_VELO_SCH,Yes,No,No
 People Internal Gains, RADIOLOGY_FLR_4 PEOPLE,ADMIN_OCC_SCH,RADIOLOGY_FLR_4,487.74,26.2,26.2,5.380E-002,18.587,0.300,0.700,AutoCalculate,ACTIVITY_SCH,No,3.8200E-008,0,24,Zone Averaged,WORK_EFF_SCH,Clothing Insulation Schedule,N/A,CLOTHING_SCH,AIR_VELO_SCH,Yes,No,No
! <Lights Internal Gains - Nominal>,Name,Schedule Name,Zone Name,Zone Floor Area {m2},# Zone Occupants,Lighting Level {W},Lights/Floor Area {W/m2},Lights per person {W/person},Fraction Return Air,Fraction Radiant,Fraction Short Wave,Fraction Convected,Fraction Replaceable,End-Use Category,Nominal Minimum Lighting Level {W},Nominal Maximum Lighting Level {W}
 Lights Internal Gains, BASEMENT_LIGHTS,ADMIN_LIGHT_SCH,BASEMENT,3739.35,100.6,44273.873,11.840,440.148,0.000,0.700,0.200,0.100,1.000,General,2213.694,39846.485
 Lights Internal Gains, CORRIDOR_FLR_1_LIGHTS,ADMIN_LIGHT_SCH,CORRIDOR_FLR_1,569.03,6.1,6122.775,10.760,996.296,0.000,0.700,0.200,0.100,1.000,General,306.139,5510.497
 Lights Internal Gains, CORRIDOR_FLR_2_LIGHTS,ADMIN_LIGHT_SCH,CORRIDOR_FLR_2,569.03,6.1,6122.775,10.760,996.296,0.000,0.700,0.200,0.100,1.000,General,306.139,5510.497
 Lights Internal Gains, CORRIDOR_FLR_5_LIGHTS,ADMIN_LIGHT_SCH,CORRIDOR_FLR_5,501.68,5.4,5398.038,10.760,996.296,0.000,0.700,0.200,0.100,1.000,General,269.902,4858.234
 Lights Internal Gains, CORRIDOR_NW_FLR_3_LIGHTS,ADMIN_LIGHT_SCH,CORRIDOR_NW_FLR_3,566.71,6.1,6097.784,10.760,996.296,0.000,0.700,0.200,0.100,1.000,General,304.889,5488.006
 Lights Internal Gains, CORRIDOR_NW_FLR_4_LIGHTS,ADMIN_LIGHT_SCH,CORRIDOR_NW_FLR_4,566.71,6.1,6097.784,10.760,996.296,0.000,0.700,0.200,0.100,1.000,General,304.889,5488.006
 Lights Internal Gains, CORRIDOR_SE_FLR_3_LIGHTS,ADMIN_LIGHT_SCH,CORRIDOR_SE_FLR_3,566.71,6.1,6097.784,10.760,996.296,0.000,0.700,0.200,0.100,1.000,General,304.889,5488.006
 Lights Internal Gains, CORRIDOR_SE_FLR_4_LIGHTS,ADMIN_LIGHT_SCH,CORRIDOR_SE_FLR_4,566.71,6.1,6097.784,10.760,996.296,0.000,0.700,0.200,0.100,1.000,General,304.889,5488.006
 Lights Internal Gains, DINING_FLR_5_LIGHTS,ADMIN_LIGHT_SCH,DINING_FLR_5,696.77,75.0,6744.761,9.680,89.963,0.000,0.700,0.200,0.100,1.000,General,337.238,6070.285
 Lights Internal Gains, ER_EXAM1_MULT4_FLR_1_LIGHTS,CRITICAL_LIGHT_SCH,ER_EXAM1_MULT4_FLR_1,27.87,6.0,809.650,29.050,135.117,0.000,0.700,0.200,0.100,1.000,General,404.825,728.685
 Lights Internal Gains, ER_EXAM3_MULT4_FLR_1_LIGHTS,CRITICAL_LIGHT_SCH,ER_EXAM3_MULT4_FLR_1,27.87,6.0,809.650,29.050,135.117,0.000,0.700,0.200,0.100,1.000,General,404.825,728.685
 Lights Internal Gains, ER_NURSESTN_LOBBY_FLR_1_LIGHTS,ADMIN_LIGHT_SCH,ER_NURSESTN_LOBBY_FLR_1,1235.61,17.7,14889.106,12.050,842.658,0.000,0.700,0.200,0.100,1.000,General,744.455,13400.195
 Lights Internal Gains, ER_TRAUMA1_FLR_1_LIGHTS,CRITICAL_LIGHT_SCH,ER_TRAUMA1_FLR_1,27.87,6.0,809.650,29.050,135.117,0.000,0.700,0.200,0.100,1.000,General,404.825,728.685
 Lights Internal Gains, ER_TRAUMA2_FLR_1_LIGHTS,CRITICAL_LIGHT_SCH,ER_TRAUMA2_FLR_1,27.87,6.0,809.650,29.050,135.117,0.000,0.700,0.200,0.100,1.000,General,404.825,728.685
 Lights Internal Gains, ER_TRIAGE_MULT4_FLR_1_LIGHTS,CRITICAL_LIGHT_SCH,ER_TRIAGE_MULT4_FLR_1,27.87,6.0,809.650,29.050,135.117,0.000,0.700,0.200,0.100,1.000,General,404.825,728.685
 Lights Internal Gains, ICU_FLR_2_LIGHTS,CRITICAL_LIGHT_SCH,ICU_FLR_2,617.96,33.2,5320.674,8.610,160.038,0.000,0.700,0.200,0.100,1.000,General,2660.337,4788.607
 Lights Internal Gains, ICU_NURSESTN_LOBBY_FLR_2_LIGHTS,ADMIN_LIGHT_SCH,ICU_NURSESTN_LOBBY_FLR_2,668.77,9.6,8058.652,12.050,842.658,0.000,0.700,0.200,0.100,1.000,General,402.933,7252.787
 Lights Internal Gains, IC_PATROOM1_MULT5_FLR_2_LIGHTS,CRITICAL_LIGHT_SCH,IC_PATROOM1_MULT5_FLR_2,20.90,1.1,179.976,8.610,160.038,0.000,0.700,0.200,0.100,1.000,General,89.988,161.979
 Lights Internal Gains, IC_PATROOM2_FLR_2_LIGHTS,CRITICAL_LIGHT_SCH,IC_PATROOM2_FLR_2,27.87,1.5,239.969,8.610,160.038,0.000,0.700,0.200,0.100,1.000,General,119.984,215.972
 Lights Internal Gains, IC_PATROOM3_MULT6_FLR_2_LIGHTS,CRITICAL_LIGHT_SCH,IC_PATROOM3_MULT6_FLR_2,20.90,1.1,179.976,8.610,160.038,0.000,0.700,0.200,0.100,1.000,General,89.988,161.979
 Lights Internal Gains, KITCHEN_FLR_5_LIGHTS,ADMIN_LIGHT_SCH,KITCHEN_FLR_5,929.03,50.0,11993.782,12.910,239.963,0.000,0.700,0.200,0.100,1.000,General,599.689,10794.404
 Lights Internal Gains, LAB_FLR_3_LIGHTS,ADMIN_LIGHT_SCH,LAB_FLR_3,264.77,14.2,3987.491,15.060,279.926,0.000,0.700,0.200,0.100,1.000,General,199.375,3588.742
 Lights Internal Gains, LAB_FLR_4_LIGHTS,ADMIN_LIGHT_SCH,LAB_FLR_4,264.77,14.2,3987.491,15.060,279.926,0.000,0.700,0.200,0.100,1.000,General,199.375,3588.742
 Lights Internal Gains, LOBBY_RECORDS_FLR_1_LIGHTS,ADMIN_LIGHT_SCH,LOBBY_RECORDS_FLR_1,1474.81,21.1,23331.504,15.820,1106.294,0.000,0.700,0.200,0.100,1.000,General,1166.575,20998.354
 Lights Internal Gains, NURSESTN_LOBBY_FLR_3_LIGHTS,ADMIN_LIGHT_SCH,NURSESTN_LOBBY_FLR_3,905.80,13.0,11503.719,12.700,888.112,0.000,0.700,0.200,0.100,1.000,General,575.186,10353.347
 Lights Internal Gains, NURSESTN_LOBBY_FLR_4_LIGHTS,ADMIN_LIGHT_SCH,NURSESTN_LOBBY_FLR_4,905.80,13.0,11503.719,12.700,888.112,0.000,0.700,0.200,0.100,1.000,General,575.186,10353.347
 Lights Internal Gains, NURSESTN_LOBBY_FLR_5_LIGHTS,ADMIN_LIGHT_SCH,NURSESTN_LOBBY_FLR_5,1040.51,14.9,13214.528,12.700,888.112,0.000,0.700,0.200,0.100,1.000,General,660.726,11893.076
 Lights Internal Gains, OR1_FLR_2_LIGHTS,CRITICAL_LIGHT_SCH,OR1_FLR_2,55.74,3.0,1319.409,23.670,439.964,0.000,0.700,0.200,0.100,1.000,General,659.704,1187.468
 Lights Internal Gains, OR2_MULT5_FLR_2_LIGHTS,CRITICAL_LIGHT_SCH,OR2_MULT5_FLR_2,55.74,3.0,1319.409,23.670,439.964,0.000,0.700,0.200,0.100,1.000,General,659.704,1187.468
 Lights Internal Gains, OR3_FLR_2_LIGHTS,CRITICAL_LIGHT_SCH,OR3_FLR_2,55.74,3.0,1319.409,23.670,439.964,0.000,0.700,0.200,0.100,1.000,General,659.704,1187.468
 Lights Internal Gains, OR4_FLR_2_LIGHTS,CRITICAL_LIGHT_SCH,OR4_FLR_2,222.97,12.0,5277.636,23.670,439.964,0.000,0.700,0.200,0.100,1.000,General,2638.818,4749.872
 Lights Internal Gains, OR_NURSESTN_LOBBY_FLR_2_LIGHTS,ADMIN_LIGHT_SCH,OR_NURSESTN_LOBBY_FLR_2,1012.64,14.5,12860.568,12.700,888.112,0.000,0.700,0.200,0.100,1.000,General,643.028,11574.511
 Lights Internal Gains, OFFICE1_FLR_5_LIGHTS,ADMIN_LIGHT_SCH,OFFICE1_FLR_5,69.70,5.2,825.196,11.840,157.238,0.000,0.700,0.200,0.100,1.000,General,41.260,742.676
 Lights Internal Gains, OFFICE1_MULT4_FLR_1_LIGHTS,ADMIN_LIGHT_SCH,OFFICE1_MULT4_FLR_1,13.94,1.0,164.996,11.840,157.238,0.000,0.700,0.200,0.100,1.000,General,8.250,148.496
 Lights Internal Gains, OFFICE2_MULT5_FLR_5_LIGHTS,ADMIN_LIGHT_SCH,OFFICE2_MULT5_FLR_5,69.68,5.2,824.979,11.840,157.238,0.000,0.700,0.200,0.100,1.000,General,41.249,742.481
 Lights Internal Gains, OFFICE3_FLR_5_LIGHTS,ADMIN_LIGHT_SCH,OFFICE3_FLR_5,69.68,5.2,824.979,11.840,157.238,0.000,0.700,0.200,0.100,1.000,General,41.249,742.481
 Lights Internal Gains, OFFICE4_MULT6_FLR_5_LIGHTS,ADMIN_LIGHT_SCH,OFFICE4_MULT6_FLR_5,13.94,1.0,164.996,11.840,157.238,0.000,0.700,0.200,0.100,1.000,General,8.250,148.496
 Lights Internal Gains, PATROOM1_MULT10_FLR_3_LIGHTS,CRITICAL_LIGHT_SCH,PATROOM1_MULT10_FLR_3,20.90,1.1,157.401,7.530,139.963,0.000,0.700,0.200,0.100,1.000,General,78.700,141.661
 Lights Internal Gains, PATROOM1_MULT10_FLR_4_LIGHTS,CRITICAL_LIGHT_SCH,PATROOM1_MULT10_FLR_4,20.90,1.1,157.401,7.530,139.963,0.000,0.700,0.200,0.100,1.000,General,78.700,141.661
 Lights Internal Gains, PATROOM2_FLR_3_LIGHTS,CRITICAL_LIGHT_SCH,PATROOM2_FLR_3,34.84,1.9,262.335,7.530,139.963,0.000,0.700,0.200,0.100,1.000,General,131.167,236.101
 Lights Internal Gains, PATROOM2_FLR_4_LIGHTS,CRITICAL_LIGHT_SCH,PATROOM2_FLR_4,34.84,1.9,262.335,7.530,139.963,0.000,0.700,0.200,0.100,1.000,General,131.167,236.101
 Lights Internal Gains, PATROOM3_MULT10_FLR_3_LIGHTS,CRITICAL_LIGHT_SCH,PATROOM3_MULT10_FLR_3,20.21,1.1,152.168,7.530,139.963,0.000,0.700,0.200,0.100,1.000,General,76.084,136.951
 Lights Internal Gains, PATROOM3_MULT10_FLR_4_LIGHTS,CRITICAL_LIGHT_SCH,PATROOM3_MULT10_FLR_4,20.21,1.1,152.168,7.530,139.963,0.000,0.700,0.200,0.100,1.000,General,76.084,136.951
 Lights Internal Gains, PATROOM4_FLR_3_LIGHTS,CRITICAL_LIGHT_SCH,PATROOM4_FLR_3,34.84,1.9,262.335,7.530,139.963,0.000,0.700,0.200,0.100,1.000,General,131.167,236.101
 Lights Internal Gains, PATROOM4_FLR_4_LIGHTS,CRITICAL_LIGHT_SCH,PATROOM4_FLR_4,34.84,1.9,262.335,7.530,139.963,0.000,0.700,0.200,0.100,1.000,General,131.167,236.101
 Lights Internal Gains, PATROOM5_MULT10_FLR_3_LIGHTS,CRITICAL_LIGHT_SCH,PATROOM5_MULT10_FLR_3,20.90,1.1,157.401,7.530,139.963,0.000,0.700,0.200,0.100,1.000,General,78.700,141.661
 Lights Internal Gains, PATROOM5_MULT10_FLR_4_LIGHTS,CRITICAL_LIGHT_SCH,PATROOM5_MULT10_FLR_4,20.90,1.1,157.401,7.530,139.963,0.000,0.700,0.200,0.100,1.000,General,78.700,141.661
 Lights Internal Gains, PATROOM6_FLR_3_LIGHTS,CRITICAL_LIGHT_SCH,PATROOM6_FLR_3,27.87,1.5,209.868,7.530,139.963,0.000,0.700,0.200,0.100,1.000,General,104.934,188.881
 Lights Internal Gains, PATROOM6_FLR_4_LIGHTS,CRITICAL_LIGHT_SCH,PATROOM6_FLR_4,27.87,1.5,209.868,7.530,139.963,0.000,0.700,0.200,0.100,1.000,General,104.934,188.881
 Lights Internal Gains, PATROOM7_MULT10_FLR_3_LIGHTS,CRITICAL_LIGHT_SCH,PATROOM7_MULT10_FLR_3,20.21,1.1,152.168,7.530,139.963,0.000,0.700,0.200,0.100,1.000,General,76.084,136.951
 Lights Internal Gains, PATROOM7_MULT10_FLR_4_LIGHTS,CRITICAL_LIGHT_SCH,PATROOM7_MULT10_FLR_4,20.21,1.1,152.168,7.530,139.963,0.000,0.700,0.200,0.100,1.000,General,76.084,136.951
 Lights Internal Gains, PATROOM8_FLR_3_LIGHTS,CRITICAL_LIGHT_SCH,PATROOM8_FLR_3,27.87,1.5,209.868,7.530,139.963,0.000,0.700,0.200,0.100,1.000,General,104.934,188.881
 Lights Internal Gains, PATROOM8_FLR_4_LIGHTS,CRITICAL_LIGHT_SCH,PATROOM8_FLR_4,27.87,1.5,209.868,7.530,139.963,0.000,0.700,0.200,0.100,1.000,General,104.934,188.881
 Lights Internal Gains, PHYSTHERAPY_FLR_3_LIGHTS,ADMIN_LIGHT_SCH,PHYSTHERAPY_FLR_3,487.74,26.2,4721.332,9.680,179.926,0.000,0.700,0.200,0.100,1.000,General,236.067,4249.199
 Lights Internal Gains, RADIOLOGY_FLR_4_LIGHTS,ADMIN_LIGHT_SCH,RADIOLOGY_FLR_4,487.74,26.2,2097.286,4.300,79.926,0.000,0.700,0.200,0.100,1.000,General,104.864,1887.558
! <ElectricEquipment Internal Gains - Nominal>,Name,Schedule Name,Zone Name,Zone Floor Area {m2},# Zone Occupants,Equipment Level {W},Equipment/Floor Area {W/m2},Equipment per person {W/person},Fraction Latent,Fraction Radiant,Fraction Lost,Fraction Convected,End-Use SubCategory,Nominal Minimum Equipment Level {W},Nominal Maximum Equipment Level {W}
 ElectricEquipment Internal Gains, BASEMENT_MISCPLUG_EQUIP,ADMIN_EQUIP_SCH,BASEMENT,3739.35,100.6,30176.533,8.070,300.000,0.000,0.500,0.000,0.500,MiscPlug,9052.960,30176.533
 ElectricEquipment Internal Gains, DINING_FLR_5_MISCPLUG_EQUIP,ADMIN_EQUIP_SCH,DINING_FLR_5,696.77,75.0,7497.275,10.760,100.000,0.000,0.500,0.000,0.500,MiscPlug,2249.183,7497.275
 ElectricEquipment Internal Gains, ER_EXAM1_MULT4_FLR_1_MISCPLUG_EQUIP,CRITICAL_EQUIP_SCH,ER_EXAM1_MULT4_FLR_1,27.87,6.0,447.049,16.040,74.605,0.000,0.500,0.000,0.500,MiscPlug,134.115,447.049
 ElectricEquipment Internal Gains, ER_EXAM3_MULT4_FLR_1_MISCPLUG_EQUIP,CRITICAL_EQUIP_SCH,ER_EXAM3_MULT4_FLR_1,27.87,6.0,447.049,16.040,74.605,0.000,0.500,0.000,0.500,MiscPlug,134.115,447.049
 ElectricEquipment Internal Gains, ER_NURSESTN_LOBBY_FLR_1_MISCPLUG_EQUIP,ADMIN_EQUIP_SCH,ER_NURSESTN_LOBBY_FLR_1,1235.61,17.7,18076.981,14.630,1023.077,0.000,0.500,0.000,0.500,MiscPlug,5423.094,18076.981
 ElectricEquipment Internal Gains, ER_TRAUMA1_FLR_1_MISCPLUG_EQUIP,CRITICAL_EQUIP_SCH,ER_TRAUMA1_FLR_1,27.87,6.0,1199.564,43.040,200.188,0.000,0.500,0.000,0.500,MiscPlug,359.869,1199.564
 ElectricEquipment Internal Gains, ER_TRAUMA2_FLR_1_MISCPLUG_EQUIP,CRITICAL_EQUIP_SCH,ER_TRAUMA2_FLR_1,27.87,6.0,1199.564,43.040,200.188,0.000,0.500,0.000,0.500,MiscPlug,359.869,1199.564
 ElectricEquipment Internal Gains, ER_TRIAGE_MULT4_FLR_1_MISCPLUG_EQUIP,CRITICAL_EQUIP_SCH,ER_TRIAGE_MULT4_FLR_1,27.87,6.0,809.650,29.050,135.117,0.000,0.500,0.000,0.500,MiscPlug,242.895,809.650
 ElectricEquipment Internal Gains, ICU_FLR_2_MISCPLUG_EQUIP,CRITICAL_EQUIP_SCH,ICU_FLR_2,617.96,33.2,19947.893,32.280,600.001,0.000,0.500,0.000,0.500,MiscPlug,5984.368,19947.893
 ElectricEquipment Internal Gains, ICU_NURSESTN_LOBBY_FLR_2_MISCPLUG_EQUIP,ADMIN_EQUIP_SCH,ICU_NURSESTN_LOBBY_FLR_2,668.77,9.6,14391.883,21.520,1504.896,0.000,0.500,0.000,0.500,MiscPlug,4317.565,14391.883
 ElectricEquipment Internal Gains, IC_PATROOM1_MULT5_FLR_2_MISCPLUG_EQUIP,CRITICAL_EQUIP_SCH,IC_PATROOM1_MULT5_FLR_2,20.90,1.1,674.755,32.280,600.001,0.000,0.500,0.000,0.500,MiscPlug,202.426,674.755
 ElectricEquipment Internal Gains, IC_PATROOM2_FLR_2_MISCPLUG_EQUIP,CRITICAL_EQUIP_SCH,IC_PATROOM2_FLR_2,27.87,1.5,899.673,32.280,600.001,0.000,0.500,0.000,0.500,MiscPlug,269.902,899.673
 ElectricEquipment Internal Gains, IC_PATROOM3_MULT6_FLR_2_MISCPLUG_EQUIP,CRITICAL_EQUIP_SCH,IC_PATROOM3_MULT6_FLR_2,20.90,1.1,674.755,32.280,600.001,0.000,0.500,0.000,0.500,MiscPlug,202.426,674.755
 ElectricEquipment Internal Gains, KITCHEN_FLR_5_EXHFAN_EQUIP,KITCHEN_EXHAUST_SCH,KITCHEN_FLR_5,929.03,50.0,925.000,0.996,18.507,0.000,0.000,1.000,0.000,KitchenExhFan,0.000,925.000
 ElectricEquipment Internal Gains, KITCHEN_FLR_5_MISCELEC_EQUIP,KITCHEN_ELEC_EQUIP_SCH,KITCHEN_FLR_5,929.03,50.0,74972.753,80.700,1500.003,0.200,0.500,0.100,0.200,MiscElec,0.000,26240.464
 ElectricEquipment Internal Gains, LAB_FLR_3_MISCPLUG_EQUIP,ADMIN_EQUIP_SCH,LAB_FLR_3,264.77,14.2,11395.858,43.040,800.002,0.000,0.500,0.000,0.500,MiscPlug,3418.758,11395.858
 ElectricEquipment Internal Gains, LAB_FLR_4_MISCPLUG_EQUIP,ADMIN_EQUIP_SCH,LAB_FLR_4,264.77,14.2,11395.858,43.040,800.002,0.000,0.500,0.000,0.500,MiscPlug,3418.758,11395.858
 ElectricEquipment Internal Gains, LOBBY_RECORDS_FLR_1_MISCPLUG_EQUIP,ADMIN_EQUIP_SCH,LOBBY_RECORDS_FLR_1,1474.81,21.1,1592.795,1.080,75.525,0.000,0.500,0.000,0.500,MiscPlug,477.839,1592.795
 ElectricEquipment Internal Gains, NURSESTN_LOBBY_FLR_3_MISCPLUG_EQUIP,ADMIN_EQUIP_SCH,NURSESTN_LOBBY_FLR_3,905.80,13.0,10135.954,11.190,782.518,0.000,0.500,0.000,0.500,MiscPlug,3040.786,10135.954
 ElectricEquipment Internal Gains, NURSESTN_LOBBY_FLR_4_MISCPLUG_EQUIP,ADMIN_EQUIP_SCH,NURSESTN_LOBBY_FLR_4,905.80,13.0,10135.954,11.190,782.518,0.000,0.500,0.000,0.500,MiscPlug,3040.786,10135.954
 ElectricEquipment Internal Gains, NURSESTN_LOBBY_FLR_5_MISCPLUG_EQUIP,ADMIN_EQUIP_SCH,NURSESTN_LOBBY_FLR_5,1040.51,14.9,11643.352,11.190,782.518,0.000,0.500,0.000,0.500,MiscPlug,3493.006,11643.352
 ElectricEquipment Internal Gains, OR1_FLR_2_MISCPLUG_EQUIP,CRITICAL_EQUIP_SCH,OR1_FLR_2,55.74,3.0,2399.128,43.040,800.002,0.000,0.500,0.000,0.500,MiscPlug,719.738,2399.128
 ElectricEquipment Internal Gains, OR2_MULT5_FLR_2_MISCPLUG_EQUIP,CRITICAL_EQUIP_SCH,OR2_MULT5_FLR_2,55.74,3.0,2399.128,43.040,800.002,0.000,0.500,0.000,0.500,MiscPlug,719.738,2399.128
 ElectricEquipment Internal Gains, OR3_FLR_2_MISCPLUG_EQUIP,CRITICAL_EQUIP_SCH,OR3_FLR_2,55.74,3.0,2399.128,43.040,800.002,0.000,0.500,0.000,0.500,MiscPlug,719.738,2399.128
 ElectricEquipment Internal Gains, OR4_FLR_2_MISCPLUG_EQUIP,CRITICAL_EQUIP_SCH,OR4_FLR_2,222.97,12.0,9596.512,43.040,800.002,0.000,0.500,0.000,0.500,MiscPlug,2878.954,9596.512
 ElectricEquipment Internal Gains, OR_NURSESTN_LOBBY_FLR_2_MISCPLUG_EQUIP,ADMIN_EQUIP_SCH,OR_NURSESTN_LOBBY_FLR_2,1012.64,14.5,11331.477,11.190,782.518,0.000,0.500,0.000,0.500,MiscPlug,3399.443,11331.477
 ElectricEquipment Internal Gains, OFFICE1_FLR_5_MISCPLUG_EQUIP,ADMIN_EQUIP_SCH,OFFICE1_FLR_5,69.70,5.2,749.924,10.760,142.895,0.000,0.500,0.000,0.500,MiscPlug,224.977,749.924
 ElectricEquipment Internal Gains, OFFICE1_MULT4_FLR_1_MISCPLUG_EQUIP,ADMIN_EQUIP_SCH,OFFICE1_MULT4_FLR_1,13.94,1.0,149.946,10.760,142.895,0.000,0.500,0.000,0.500,MiscPlug,44.984,149.946
 ElectricEquipment Internal Gains, OFFICE2_MULT5_FLR_5_MISCPLUG_EQUIP,ADMIN_EQUIP_SCH,OFFICE2_MULT5_FLR_5,69.68,5.2,749.728,10.760,142.895,0.000,0.500,0.000,0.500,MiscPlug,224.918,749.728
 ElectricEquipment Internal Gains, OFFICE3_FLR_5_MISCPLUG_EQUIP,ADMIN_EQUIP_SCH,OFFICE3_FLR_5,69.68,5.2,749.728,10.760,142.895,0.000,0.500,0.000,0.500,MiscPlug,224.918,749.728
 ElectricEquipment Internal Gains, OFFICE4_MULT6_FLR_5_MISCPLUG_EQUIP,ADMIN_EQUIP_SCH,OFFICE4_MULT6_FLR_5,13.94,1.0,149.946,10.760,142.895,0.000,0.500,0.000,0.500,MiscPlug,44.984,149.946
 ElectricEquipment Internal Gains, PATROOM1_MULT10_FLR_3_MISCPLUG_EQUIP,CRITICAL_EQUIP_SCH,PATROOM1_MULT10_FLR_3,20.90,1.1,449.837,21.520,400.001,0.000,0.500,0.000,0.500,MiscPlug,134.951,449.837
 ElectricEquipment Internal Gains, PATROOM1_MULT10_FLR_4_MISCPLUG_EQUIP,CRITICAL_EQUIP_SCH,PATROOM1_MULT10_FLR_4,20.90,1.1,449.837,21.520,400.001,0.000,0.500,0.000,0.500,MiscPlug,134.951,449.837
 ElectricEquipment Internal Gains, PATROOM2_FLR_3_MISCPLUG_EQUIP,CRITICAL_EQUIP_SCH,PATROOM2_FLR_3,34.84,1.9,749.728,21.520,400.001,0.000,0.500,0.000,0.500,MiscPlug,224.918,749.728
 ElectricEquipment Internal Gains, PATROOM2_FLR_4_MISCPLUG_EQUIP,CRITICAL_EQUIP_SCH,PATROOM2_FLR_4,34.84,1.9,749.728,21.520,400.001,0.000,0.500,0.000,0.500,MiscPlug,224.918,749.728
 ElectricEquipment Internal Gains, PATROOM3_MULT10_FLR_3_MISCPLUG_EQUIP,CRITICAL_EQUIP_SCH,PATROOM3_MULT10_FLR_3,20.21,1.1,434.881,21.520,400.001,0.000,0.500,0.000,0.500,MiscPlug,130.464,434.881
 ElectricEquipment Internal Gains, PATROOM3_MULT10_FLR_4_MISCPLUG_EQUIP,CRITICAL_EQUIP_SCH,PATROOM3_MULT10_FLR_4,20.21,1.1,434.881,21.520,400.001,0.000,0.500,0.000,0.500,MiscPlug,130.464,434.881
 ElectricEquipment Internal Gains, PATROOM4_FLR_3_MISCPLUG_EQUIP,CRITICAL_EQUIP_SCH,PATROOM4_FLR_3,34.84,1.9,749.728,21.520,400.001,0.000,0.500,0.000,0.500,MiscPlug,224.918,749.728
 ElectricEquipment Internal Gains, PATROOM4_FLR_4_MISCPLUG_EQUIP,CRITICAL_EQUIP_SCH,PATROOM4_FLR_4,34.84,1.9,749.728,21.520,400.001,0.000,0.500,0.000,0.500,MiscPlug,224.918,749.728
 ElectricEquipment Internal Gains, PATROOM5_MULT10_FLR_3_MISCPLUG_EQUIP,CRITICAL_EQUIP_SCH,PATROOM5_MULT10_FLR_3,20.90,1.1,449.837,21.520,400.001,0.000,0.500,0.000,0.500,MiscPlug,134.951,449.837
 ElectricEquipment Internal Gains, PATROOM5_MULT10_FLR_4_MISCPLUG_EQUIP,CRITICAL_EQUIP_SCH,PATROOM5_MULT10_FLR_4,20.90,1.1,449.837,21.520,400.001,0.000,0.500,0.000,0.500,MiscPlug,134.951,449.837
 ElectricEquipment Internal Gains, PATROOM6_FLR_3_MISCPLUG_EQUIP,CRITICAL_EQUIP_SCH,PATROOM6_FLR_3,27.87,1.5,599.782,21.520,400.001,0.000,0.500,0.000,0.500,MiscPlug,179.935,599.782
 ElectricEquipment Internal Gains, PATROOM6_FLR_4_MISCPLUG_EQUIP,CRITICAL_EQUIP_SCH,PATROOM6_FLR_4,27.87,1.5,599.782,21.520,400.001,0.000,0.500,0.000,0.500,MiscPlug,179.935,599.782
 ElectricEquipment Internal Gains, PATROOM7_MULT10_FLR_3_MISCPLUG_EQUIP,CRITICAL_EQUIP_SCH,PATROOM7_MULT10_FLR_3,20.21,1.1,434.881,21.520,400.001,0.000,0.500,0.000,0.500,MiscPlug,130.464,434.881
 ElectricEquipment Internal Gains, PATROOM7_MULT10_FLR_4_MISCPLUG_EQUIP,CRITICAL_EQUIP_SCH,PATROOM7_MULT10_FLR_4,20.21,1.1,434.881,21.520,400.001,0.000,0.500,0.000,0.500,MiscPlug,130.464,434.881
 ElectricEquipment Internal Gains, PATROOM8_FLR_3_MISCPLUG_EQUIP,CRITICAL_EQUIP_SCH,PATROOM8_FLR_3,27.87,1.5,599.782,21.520,400.001,0.000,0.500,0.000,0.500,MiscPlug,179.935,599.782
 ElectricEquipment Internal Gains, PATROOM8_FLR_4_MISCPLUG_EQUIP,CRITICAL_EQUIP_SCH,PATROOM8_FLR_4,27.87,1.5,599.782,21.520,400.001,0.000,0.500,0.000,0.500,MiscPlug,179.935,599.782
 ElectricEquipment Internal Gains, PHYSTHERAPY_FLR_3_MISCPLUG_EQUIP,ADMIN_EQUIP_SCH,PHYSTHERAPY_FLR_3,487.74,26.2,7872.139,16.140,300.001,0.000,0.500,0.000,0.500,MiscPlug,2361.642,7872.139
 ElectricEquipment Internal Gains, RADIOLOGY_FLR_4_MISCPLUG_EQUIP,ADMIN_EQUIP_SCH,RADIOLOGY_FLR_4,487.74,26.2,25889.290,53.080,986.619,0.000,0.500,0.000,0.500,MiscPlug,7766.787,25889.290
! <GasEquipment Internal Gains - Nominal>,Name,Schedule Name,Zone Name,Zone Floor Area {m2},# Zone Occupants,Equipment Level {W},Equipment/Floor Area {W/m2},Equipment per person {W/person},Fraction Latent,Fraction Radiant,Fraction Lost,Fraction Convected,End-Use SubCategory,Nominal Minimum Equipment Level {W},Nominal Maximum Equipment Level {W}
 GasEquipment Internal Gains, KITCHEN_FLR_5_MISCGAS_EQUIP,KITCHEN_GAS_EQUIP_SCH,KITCHEN_FLR_5,929.03,50.0,283233.498,304.870,5666.741,0.100,0.200,0.700,0.000,MiscGas,0.000,84970.049
! <Construction CTF>,Construction Name,Index,#Layers,#CTFs,Time Step {hours},ThermalConductance {w/m2-K},OuterThermalAbsorptance,InnerThermalAbsorptance,OuterSolarAbsorptance,InnerSolarAbsorptance,Roughness
! <Material CTF Summary>,Material Name,Thickness {m},Conductivity {w/m-K},Density {kg/m3},Specific Heat {J/kg-K},ThermalResistance {m2-K/w}
! <Material:Air>,Material Name,ThermalResistance {m2-K/w}
! <CTF>,Time,Outside,Cross,Inside,Flux (except final one)
 Construction CTF,MASS NON-RES EXT WALL,   1,   4,  18,   0.083,     0.7799    ,   0.900,   0.900,   0.920,   0.920,Smooth
 Material CTF Summary,1IN STUCCO,  0.0253,         0.692,   1858.000,      837.000,  0.3657E-01
 Material CTF Summary,8IN CONCRETE HW,  0.2032,         1.311,   2240.000,      836.800,  0.1550    
 Material CTF Summary,MASS NONRES WALL INSULATION,  0.0495,         0.049,    265.000,      836.800,   1.011    
 Material CTF Summary,1/2IN GYPSUM,  0.0127,         0.160,    784.900,      830.000,  0.7938E-01
 CTF,  18,      0.45312059E-09,      0.32608651E-17,      0.19180652E-09,     -0.46909514E-12
 CTF,  17,     -0.30253895E-07,     -0.14429541E-13,     -0.12076459E-07,      0.39369414E-10
 CTF,  16,      0.14315063E-05,      0.38973456E-12,      0.54319421E-06,     -0.23287376E-08
 CTF,  15,     -0.48147087E-04,      0.11646210E-10,     -0.17537951E-04,      0.97199144E-07
 CTF,  14,      0.11573186E-02,      0.19367137E-09,      0.40900524E-03,     -0.28730987E-05
 CTF,  13,     -0.20027985E-01,      0.19878317E-08,     -0.69385270E-02,      0.60505899E-04
 CTF,  12,      0.25170700    ,      0.12516172E-07,      0.86240361E-01,     -0.91508189E-03
 CTF,  11,      -2.3182057    ,      0.47881355E-07,     -0.79066753    ,      0.10027847E-01
 CTF,  10,       15.778463    ,      0.10951987E-06,       5.3786775    ,     -0.80314910E-01
 CTF,   9,      -79.918854    ,      0.14658270E-06,      -27.273505    ,      0.47359787    
 CTF,   8,       302.62904    ,      0.10973911E-06,       103.36271    ,      -2.0666188    
 CTF,   7,      -857.92137    ,      0.46760185E-07,      -292.79628    ,       6.6861409    
 CTF,   6,       1815.3965    ,      0.37524392E-08,       617.61844    ,      -15.999528    
 CTF,   5,      -2841.9372    ,      0.98946261E-08,      -961.20485    ,       28.082381    
 CTF,   4,       3234.2430    ,     -0.11497599E-07,       1084.5344    ,      -35.546890    
 CTF,   3,      -2593.6848    ,      0.10184768E-07,      -860.11444    ,       31.472485    
 CTF,   2,       1386.1869    ,     -0.59572430E-08,       453.58551    ,      -18.443463    
 CTF,   1,      -442.35817    ,      0.20669979E-08,      -142.55770    ,       6.4130401    
 CTF,   0,       63.671949    ,     -0.32153120E-09,       20.177975    
 Construction CTF,IEAD NON-RES ROOF,   2,   3,  15,   0.083,     0.3762    ,   0.900,   0.900,   0.700,   0.700,VeryRough
 Material CTF Summary,ROOF MEMBRANE,  0.0095,         0.160,   1121.290,     1460.000,  0.5937E-01
 Material CTF Summary,IEAD NONRES ROOF INSULATION,  0.1273,         0.049,    265.000,      836.800,   2.599    
 Material CTF Summary,METAL DECKING,  0.0015,        45.006,   7680.000,      418.400,  0.3333E-04
 CTF,  15,     -0.33745376E-09,      0.12893292E-14,     -0.89437495E-09,      0.37449399E-12
 CTF,  14,      0.30603352E-07,     -0.77778735E-14,      0.75287079E-07,     -0.47207537E-10
 CTF,  13,     -0.18420016E-05,      0.53331342E-11,     -0.42329525E-05,      0.39556547E-08
 CTF,  12,      0.73836762E-04,      0.16415541E-09,      0.15791309E-03,     -0.21996169E-06
 CTF,  11,     -0.19791932E-02,      0.52865056E-08,     -0.39034669E-02,      0.80802195E-05
 CTF,  10,      0.35694302E-01,      0.96284647E-07,      0.64111092E-01,     -0.19543915E-03
 CTF,   9,     -0.43637975    ,      0.91191251E-06,     -0.70495524    ,      0.31139860E-02
 CTF,   8,       3.6423662    ,      0.44555410E-05,       5.2466054    ,     -0.32843732E-01
 CTF,   7,      -20.864587    ,      0.11044356E-04,      -26.730759    ,      0.23109331    
 CTF,   6,       82.195591    ,      0.13354517E-04,       94.020412    ,      -1.0929033    
 CTF,   5,      -222.11843    ,      0.74911168E-05,      -228.82056    ,       3.4855510    
 CTF,   4,       407.57010    ,      0.15568784E-05,       382.47062    ,      -7.4562319    
 CTF,   3,      -496.08307    ,      0.31507482E-06,      -429.30666    ,       10.485471    
 CTF,   2,       381.71939    ,     -0.16146102E-06,       308.28269    ,      -9.2557898    
 CTF,   1,      -167.55668    ,      0.81010975E-07,      -127.66701    ,       4.6326229    
 CTF,   0,       31.897949    ,     -0.17266330E-07,       23.149288    
 Construction CTF,EXT-SLAB,   3,   1,  10,   0.017,      12.90    ,   0.900,   0.900,   0.700,   0.700,Rough
 Material CTF Summary,HW CONCRETE,  0.1016,         1.311,   2240.000,      836.800,  0.7750E-01
 CTF,  10,      0.17666084E-01,      0.30415783E-12,      0.17666084E-01,     -0.10284915E-03
 CTF,   9,     -0.53345198    ,      0.13634458E-08,     -0.53345198    ,      0.31691912E-02
 CTF,   8,       6.9015836    ,      0.23544128E-06,       6.9015836    ,     -0.41966012E-01
 CTF,   7,      -50.306258    ,      0.77364325E-05,      -50.306258    ,      0.31409786    
 CTF,   6,       228.65313    ,      0.76137774E-04,       228.65313    ,      -1.4708009    
 CTF,   5,      -677.39504    ,      0.26697631E-03,      -677.39504    ,       4.5036687    
 CTF,   4,       1326.3196    ,      0.35009571E-03,       1326.3196    ,      -9.1419581    
 CTF,   3,      -1698.0606    ,      0.16388979E-03,      -1698.0606    ,       12.166825    
 CTF,   2,       1363.8208    ,      0.23053896E-04,       1363.8208    ,      -10.180995    
 CTF,   1,      -622.23170    ,      0.61900467E-06,      -622.23170    ,       4.8479937    
 CTF,   0,       122.81518    ,      0.62073570E-09,       122.81518    
 Construction CTF,INT-WALLS,   4,   2,   8,   0.017,      6.299    ,   0.900,   0.900,   0.920,   0.920,Smooth
 Material CTF Summary,1/2IN GYPSUM,  0.0127,         0.160,    784.900,      830.000,  0.7938E-01
 Material CTF Summary,1/2IN GYPSUM,  0.0127,         0.160,    784.900,      830.000,  0.7938E-01
 CTF,   8,      0.30848833E-10,      0.33177330E-11,      0.30848807E-10,     -0.13202875E-13
 CTF,   7,     -0.14677654E-06,      0.15882039E-07,     -0.14677654E-06,      0.12228433E-09
 CTF,   6,      0.13052359E-03,      0.11724820E-04,      0.13052359E-03,     -0.21177097E-06
 CTF,   5,     -0.23450937E-01,      0.15079622E-02,     -0.23450937E-01,      0.69720338E-04
 CTF,   4,      0.99797253    ,      0.38434246E-01,      0.99797253    ,     -0.51315520E-02
 CTF,   3,      -12.238119    ,      0.21194838    ,      -12.238119    ,      0.10316487    
 CTF,   2,       51.439645    ,      0.24764135    ,       51.439645    ,     -0.66444834    
 CTF,   1,      -80.660096    ,      0.46379754E-01,      -80.660096    ,       1.4796223    
 CTF,   0,       41.030206    ,      0.36463071E-03,       41.030206    
 Construction CTF,INT-FLOOR-TOPSIDE,   5,   2,  11,   0.050,      3.401    ,   0.900,   0.900,   0.700,   0.700,Rough
 Material CTF Summary,MAT-CC05 4 HW CONCRETE,  0.1016,         1.311,   2240.000,      836.800,  0.7750E-01
 Material CTF Summary,CP02 CARPET PAD,  0.0000,         0.000,      0.000,        0.000,  0.2165    
 CTF,  11,     -0.65375417E-11,      0.20734107E-16,     -0.12066396E-12,      0.19444725E-13
 CTF,  10,      0.59680816E-08,      0.17983167E-13,      0.10662922E-09,     -0.18244252E-10
 CTF,   9,     -0.19792579E-05,      0.49259255E-10,     -0.34866578E-07,      0.63194813E-08
 CTF,   8,      0.29517994E-03,      0.21276049E-07,      0.52476923E-05,     -0.10007528E-05
 CTF,   7,     -0.20477267E-01,      0.23500071E-05,     -0.37934443E-03,      0.75395759E-04
 CTF,   6,      0.65197761    ,      0.77582821E-04,      0.13070974E-01,     -0.26792301E-02
 CTF,   5,      -9.4967509    ,      0.83550572E-03,     -0.21370169    ,      0.44777428E-01
 CTF,   4,       65.209593    ,      0.29527529E-02,       1.6906767    ,     -0.35999791    
 CTF,   3,      -220.98528    ,      0.33891269E-02,      -6.6679191    ,       1.4379394    
 CTF,   2,       378.37023    ,      0.92365328E-03,       13.233376    ,      -2.8848871    
 CTF,   1,      -313.11855    ,      0.14506218E-03,      -12.547222    ,       2.7623345    
 CTF,   0,       99.397264    ,      0.31845169E-04,       4.5003873    
 Construction CTF,INT-FLOOR-UNDERSIDE,   6,   2,  11,   0.050,      3.401    ,   0.900,   0.900,   0.700,   0.700,VeryRough
 Material CTF Summary,CP02 CARPET PAD,  0.0000,         0.000,      0.000,        0.000,  0.2165    
 Material CTF Summary,MAT-CC05 4 HW CONCRETE,  0.1016,         1.311,   2240.000,      836.800,  0.7750E-01
 CTF,  11,     -0.12066396E-12,      0.20734107E-16,     -0.65375417E-11,      0.19444725E-13
 CTF,  10,      0.10662922E-09,      0.17983167E-13,      0.59680816E-08,     -0.18244252E-10
 CTF,   9,     -0.34866578E-07,      0.49259255E-10,     -0.19792579E-05,      0.63194813E-08
 CTF,   8,      0.52476923E-05,      0.21276049E-07,      0.29517994E-03,     -0.10007528E-05
 CTF,   7,     -0.37934443E-03,      0.23500071E-05,     -0.20477267E-01,      0.75395759E-04
 CTF,   6,      0.13070974E-01,      0.77582821E-04,      0.65197761    ,     -0.26792301E-02
 CTF,   5,     -0.21370169    ,      0.83550572E-03,      -9.4967509    ,      0.44777428E-01
 CTF,   4,       1.6906767    ,      0.29527529E-02,       65.209593    ,     -0.35999791    
 CTF,   3,      -6.6679191    ,      0.33891269E-02,      -220.98528    ,       1.4379394    
 CTF,   2,       13.233376    ,      0.92365328E-03,       378.37023    ,      -2.8848871    
 CTF,   1,      -12.547222    ,      0.14506218E-03,      -313.11855    ,       2.7623345    
 CTF,   0,       4.5003873    ,      0.31845169E-04,       99.397264    
 Construction CTF,UNDERGROUND WALL NON-RES,   7,   2,  13,   0.083,      6.368    ,   0.900,   0.900,   0.700,   0.700,Rough
 Material CTF Summary,8IN CONCRETE HW,  0.2032,         1.311,   2240.000,      836.800,  0.1550    
 Material CTF Summary,UGWALL NONRES INSULATION,  0.0001,         0.049,    265.000,      836.800,  0.2041E-02
 CTF,  13,     -0.12940620E-09,     -0.46863455E-13,     -0.18711847E-08,      0.36168787E-12
 CTF,  12,      0.27310865E-07,      0.73944825E-11,      0.26315722E-06,     -0.82190629E-10
 CTF,  11,     -0.33344372E-05,      0.12520385E-08,     -0.21810794E-04,      0.10941328E-07
 CTF,  10,      0.23288844E-03,      0.92176572E-07,      0.10634591E-02,     -0.84345311E-06
 CTF,   9,     -0.92605739E-02,      0.30675735E-05,     -0.30714986E-01,      0.37457064E-04
 CTF,   8,      0.21080342    ,      0.46773368E-04,      0.53315372    ,     -0.96234270E-03
 CTF,   7,      -2.7897856    ,      0.32706472E-03,      -5.6659454    ,      0.14492150E-01
 CTF,   6,       21.925905    ,      0.10325566E-02,       37.539672    ,     -0.13022787    
 CTF,   5,      -104.47923    ,      0.14150099E-02,      -157.16350    ,      0.71016028    
 CTF,   4,       305.76469    ,      0.77417922E-03,       417.55504    ,      -2.3723348    
 CTF,   3,      -547.90606    ,      0.14818831E-03,      -696.26709    ,       4.8276537    
 CTF,   2,       582.55934    ,      0.34326487E-05,       701.54742    ,      -5.7908628    
 CTF,   1,      -336.05376    ,      0.21157091E-05,      -388.62257    ,       3.7414558    
 CTF,   0,       80.780881    ,     -0.54405049E-06,       90.577237    
 Construction CTF,DROPCEILING,  10,   1,   5,   0.017,      4.488    ,   0.900,   0.900,   0.700,   0.700,MediumSmooth
 Material CTF Summary,STD AC02,  0.0127,         0.057,    288.000,     1339.000,  0.2228    
 CTF,   5,     -0.43576264E-05,      0.32533453E-06,     -0.43576264E-05,      0.35441793E-07
 CTF,   4,      0.45178569E-02,      0.57997009E-03,      0.45178569E-02,     -0.48068764E-04
 CTF,   3,     -0.48570000    ,      0.54522555E-01,     -0.48570000    ,      0.77136304E-02
 CTF,   2,       7.1688400    ,      0.52847179    ,       7.1688400    ,     -0.17737175    
 CTF,   1,      -22.746003    ,      0.64259973    ,      -22.746003    ,      0.88271706    
 CTF,   0,       17.346410    ,      0.61886911E-01,       17.346410    
 Construction CTF,AIR-WALL,  11,   1,   1,   0.017,      4.809    ,   0.900,   0.900,   0.700,   0.700,Rough
 Material CTF Summary,MAT-AIR-WALL,  0.0000,         0.000,      0.000,        0.000,  0.2079    
 CTF,   1,       0.0000000    ,       0.0000000    ,       0.0000000    ,       0.0000000    
 CTF,   0,       4.8088691    ,       4.8088691    ,       4.8088691    
 Construction CTF,INTERIORFURNISHINGS,  12,   1,  17,   0.100,     0.8000    ,   0.900,   0.900,   0.700,   0.700,MediumSmooth
 Material CTF Summary,STD WOOD 6INCH,  0.1500,         0.120,    540.000,     1210.000,   1.250    
 CTF,  17,     -0.90079007E-12,      0.10053588E-19,     -0.90079705E-12,      0.36041705E-13
 CTF,  16,      0.12994501E-09,      0.14362381E-15,      0.12994500E-09,     -0.52870379E-11
 CTF,  15,     -0.10704352E-07,      0.35215962E-15,     -0.10704352E-07,      0.44428442E-09
 CTF,  14,      0.56022885E-06,      0.75971587E-14,      0.56022885E-06,     -0.23797974E-07
 CTF,  13,     -0.19623129E-04,      0.11875298E-11,     -0.19623129E-04,      0.85638647E-06
 CTF,  12,      0.47329417E-03,      0.84635786E-10,      0.47329417E-03,     -0.21312361E-04
 CTF,  11,     -0.79913137E-02,      0.28374579E-08,     -0.79913137E-02,      0.37305091E-03
 CTF,  10,      0.95413482E-01,      0.47432590E-07,      0.95413482E-01,     -0.46404581E-02
 CTF,   9,     -0.81085452    ,      0.40799225E-06,     -0.81085452    ,      0.41289246E-01
 CTF,   8,       4.9254726    ,      0.18261187E-05,       4.9254726    ,     -0.26380912    
 CTF,   7,      -21.427375    ,      0.42223363E-05,      -21.427375    ,       1.2120212    
 CTF,   6,       66.676295    ,      0.49043847E-05,       66.676295    ,      -3.9960028    
 CTF,   5,      -147.48837    ,      0.27066883E-05,      -147.48837    ,       9.3877258    
 CTF,   4,       228.64255    ,      0.64260075E-06,       228.64255    ,      -15.479788    
 CTF,   3,      -241.64982    ,      0.54857284E-07,      -241.64982    ,       17.414460    
 CTF,   2,       165.25879    ,      0.11609948E-08,       165.25879    ,      -12.676999    
 CTF,   1,      -65.742762    ,      0.86072332E-11,      -65.742762    ,       5.3653721    
 CTF,   0,       11.528221    ,     -0.10989922E-11,       11.528221    
 Construction CTF,INSULATED BURIED PIPE,  13,   2,   6,   0.017,      1.333    ,   0.900,   0.900,   0.500,   0.500,VeryRough
 Material CTF Summary,BURIED PIPE INSULATION,  0.0300,         0.040,     91.000,      836.000,  0.7500    
 Material CTF Summary,BURIED PIPE STEEL,  0.0030,        45.310,   7833.000,      500.000,  0.6621E-04
 CTF,   6,      0.37218658E-15,     -0.34162914E-11,      0.15272295E-02,     -0.16063669E-16
 CTF,   5,     -0.11979092E-03,      0.12539397E-05,     -0.22988099    ,      0.76790093E-05
 CTF,   4,      0.16528167E-01,      0.58742488E-03,       8.4006867    ,     -0.11471318E-02
 CTF,   3,     -0.51226208    ,      0.20805167E-01,      -88.946909    ,      0.40971184E-01
 CTF,   2,       4.0290333    ,      0.10454368    ,       323.99334    ,     -0.40327515    
 CTF,   1,      -9.1519236    ,      0.79317324E-01,      -447.22539    ,       1.2057083    
 CTF,   0,       5.8290390    ,      0.50401083E-02,       204.21692    
! <WindowConstruction>,Construction Name,Index,#Layers,Roughness,Conductance {W/m2-K},SHGC,Solar Transmittance at Normal Incidence,Visible Transmittance at Normal Incidence
! <WindowMaterial:Glazing>, Material Name, Optical Data Type, Spectral Data Set Name, Thickness {m}, Solar Transmittance,Front Solar Reflectance, Back Solar Reflectance, Visible Transmittance, Front Visible Reflectance,Back Visible Reflectance,Infrared Transmittance, Front Thermal Emissivity, Back Thermal Emissivity,Conductivity {W/m-K},Dirt Factor,Solar Diffusing
 WindowConstruction,WINDOW NON-RES FIXED,8,1,VerySmooth,3.241,0.385,0.305,0.305
 WindowMaterial:Glazing,NONRES FIXED ASSEMBLY WINDOW,SpectralAverage,,2.00000E-003,0.30403,0.46624,0.46624,0.30403,0.46624,0.46624,0.00000,0.84000,0.84000,1.43749E-002,1.00000,No
 WindowConstruction,WINDOW RES FIXED,9,1,VerySmooth,3.241,0.385,0.305,0.305
 WindowMaterial:Glazing,RES FIXED ASSEMBLY WINDOW,SpectralAverage,,2.00000E-003,0.30403,0.46624,0.46624,0.30403,0.46624,0.46624,0.00000,0.84000,0.84000,1.43749E-002,1.00000,No
! <Shadowing/Sun Position Calculations> [Annual Simulations], Calculation Method,Value {days}, Allowable Number Figures in Shadow Overlap {}, Polygon Clipping Algorithm, Sky Diffuse Modeling Algorithm
Shadowing/Sun Position Calculations,AverageOverDaysInFrequency,7,15000,SutherlandHodgman,SimpleSkyDiffuseModeling
! <#Refrigeration Compressor Racks>,Number of Refrigeration Compressor Racks
! <Refrigeration Compressor Rack>,Compressor Rack Name, # Refrigerated Cases Connected,# WalkIn Coolers Connected, Heat Rejection Location, Condenser Type, COP
!  <Refrigeration Case>,Refrigeration Case Number, Refrigeration Case Name,Zone Name,Zone Node #,Zone Node Name,Capacity (W/m),LHR,Temperature (C),Length (m),Fan (W/m),Installed Lighting (W/m),Anti-Sweat (W/m),Defrost (W/m)
#Refrigeration Compressor Racks, 2
 Refrigeration Compressor Rack,RACK1,1,0,Outdoors,Air-Cooled,1.500
   Refrigeration Case,1,KITCHEN_FLR_5_CASE:1_WALKINFREEZER,KITCHEN_FLR_5,352,KITCHEN_FLR_5 AIR NODE,734.0,0.10,-23.0,11.0,69.0,33.0,0.0,364.0
 Refrigeration Compressor Rack,RACK2,1,0,Outdoors,Air-Cooled,3.000
   Refrigeration Case,2,KITCHEN_FLR_5_CASE:2_SELFCONTAINEDDISPLAYCASE,KITCHEN_FLR_5,352,KITCHEN_FLR_5 AIR NODE,886.5,8.00E-002,2.0,8.9,67.0,40.0,0.0,0.0
! <Water Heater Information>,Type,Name,Volume {m3},Maximum Capacity {W},Standard Rated Recovery Efficiency, Standard Rated Energy Factor
! <Surface Convection Parameters>, Surface Name, Outside Model Assignment, Outside Area [m2], Outside Perimeter [m], Outside Height [m], Inside Model Assignment, Inside Height [cm], Inside Perimeter Envelope [m], Inside Hydraulic Diameter [m], Window Wall Ratio [ ], Window Location [ ], Near Radiant [Yes/No], Has Active HVAC [Yes/No]
Surface Convection Parameters,BASEMENT_WALL_EAST,0,0.00,0.00,0.00,0,2.44,0.00,60.58,-999.00,0,No,No
Surface Convection Parameters,BASEMENT_WALL_NORTH,0,0.00,0.00,0.00,0,2.44,0.00,60.58,-999.00,0,No,No
Surface Convection Parameters,BASEMENT_WALL_SOUTH,0,0.00,0.00,0.00,0,2.44,0.00,60.58,-999.00,0,No,No
Surface Convection Parameters,BASEMENT_WALL_WEST,0,0.00,0.00,0.00,0,2.44,0.00,60.58,-999.00,0,No,No
Surface Convection Parameters,BASEMENT_FLOOR,0,0.00,0.00,0.00,0,2.44,0.00,60.58,-999.00,0,No,No
Surface Convection Parameters,BASEMENT_CEILING,0,0.00,0.00,0.00,0,2.44,0.00,60.58,-999.00,0,No,No
Surface Convection Parameters,BASEMENT INTERNAL MASS,0,0.00,0.00,0.00,0,2.44,0.00,60.58,-999.00,0,No,No
Surface Convection Parameters,CORRIDOR_FLR_1_WALL_1_WEST,0,0.00,0.00,0.00,0,4.27,21.34,17.78,0.00,0,No,No
Surface Convection Parameters,CORRIDOR_FLR_1_WALL_2_WEST,0,0.00,0.00,0.00,0,4.27,21.34,17.78,0.00,0,No,No
Surface Convection Parameters,CORRIDOR_FLR_1_WALL_EAST,0,0.00,0.00,0.00,0,4.27,21.34,17.78,0.00,0,No,No
Surface Convection Parameters,CORRIDOR_FLR_1_WALL_NORTH,0,923.69,218.86,21.34,0,4.27,21.34,17.78,0.00,0,No,No
Surface Convection Parameters,CORRIDOR_FLR_1_WALL_SOUTH,0,1014.74,182.89,21.34,0,4.27,21.34,17.78,0.00,0,No,No
Surface Convection Parameters,CORRIDOR_FLR_1_FLOOR,0,0.00,0.00,0.00,0,4.27,21.34,17.78,0.00,0,No,No
Surface Convection Parameters,CORRIDOR_FLR_1_CEILING,0,0.00,0.00,0.00,0,4.27,21.34,17.78,0.00,0,No,No
Surface Convection Parameters,CORRIDOR_FLR_1 INTERNAL MASS,0,0.00,0.00,0.00,0,4.27,21.34,17.78,0.00,0,No,No
Surface Convection Parameters,CORRIDOR_FLR_2_WALL_EAST,0,0.00,0.00,0.00,0,4.27,21.34,17.78,0.00,0,No,No
Surface Convection Parameters,CORRIDOR_FLR_2_WALL_NORTH,0,923.69,218.86,21.34,0,4.27,21.34,17.78,0.00,0,No,No
Surface Convection Parameters,CORRIDOR_FLR_2_WALL_SOUTH,0,1014.74,182.89,21.34,0,4.27,21.34,17.78,0.00,0,No,No
Surface Convection Parameters,CORRIDOR_FLR_2_WALL_WEST,0,0.00,0.00,0.00,0,4.27,21.34,17.78,0.00,0,No,No
Surface Convection Parameters,CORRIDOR_FLR_2_FLOOR,0,0.00,0.00,0.00,0,4.27,21.34,17.78,0.00,0,No,No
Surface Convection Parameters,CORRIDOR_FLR_2_CEILING,0,0.00,0.00,0.00,0,4.27,21.34,17.78,0.00,0,No,No
Surface Convection Parameters,CORRIDOR_FLR_2 INTERNAL MASS,0,0.00,0.00,0.00,0,4.27,21.34,17.78,0.00,0,No,No
Surface Convection Parameters,CORRIDOR_FLR_5_WALL_1_EAST,0,0.00,0.00,0.00,0,4.27,18.29,11.97,0.00,0,No,No
Surface Convection Parameters,CORRIDOR_FLR_5_WALL_1_NORTH,0,923.69,218.86,21.34,0,4.27,18.29,11.97,0.00,0,No,No
Surface Convection Parameters,CORRIDOR_FLR_5_WALL_1_SOUTH,0,0.00,0.00,0.00,0,4.27,18.29,11.97,0.00,0,No,No
Surface Convection Parameters,CORRIDOR_FLR_5_WALL_1_WEST,0,0.00,0.00,0.00,0,4.27,18.29,11.97,0.00,0,No,No
Surface Convection Parameters,CORRIDOR_FLR_5_WALL_2_EAST,0,0.00,0.00,0.00,0,4.27,18.29,11.97,0.00,0,No,No
Surface Convection Parameters,CORRIDOR_FLR_5_WALL_2_NORTH,0,0.00,0.00,0.00,0,4.27,18.29,11.97,0.00,0,No,No
Surface Convection Parameters,CORRIDOR_FLR_5_WALL_2_SOUTH,0,1014.74,182.89,21.34,0,4.27,18.29,11.97,0.00,0,No,No
Surface Convection Parameters,CORRIDOR_FLR_5_WALL_2_WEST,0,0.00,0.00,0.00,0,4.27,18.29,11.97,0.00,0,No,No
Surface Convection Parameters,CORRIDOR_FLR_5_FLOOR,0,0.00,0.00,0.00,0,4.27,18.29,11.97,0.00,0,No,No
Surface Convection Parameters,CORRIDOR_FLR_5_CEILING,0,3390.98,263.65,0.00,0,4.27,18.29,11.97,0.00,0,No,No
Surface Convection Parameters,CORRIDOR_FLR_5 INTERNAL MASS,0,0.00,0.00,0.00,0,4.27,18.29,11.97,0.00,0,No,No
Surface Convection Parameters,CORRIDOR_NW_FLR_3_WALL_1_EAST,0,0.00,0.00,0.00,0,4.27,10.67,10.94,0.00,0,No,No
Surface Convection Parameters,CORRIDOR_NW_FLR_3_WALL_1_NORTH,0,923.69,218.86,21.34,0,4.27,10.67,10.94,0.00,0,No,No
Surface Convection Parameters,CORRIDOR_NW_FLR_3_WALL_1_WEST,0,0.00,0.00,0.00,0,4.27,10.67,10.94,0.00,0,No,No
Surface Convection Parameters,CORRIDOR_NW_FLR_3_WALL_2_EAST,0,0.00,0.00,0.00,0,4.27,10.67,10.94,0.00,0,No,No
Surface Convection Parameters,CORRIDOR_NW_FLR_3_WALL_2_NORTH,0,0.00,0.00,0.00,0,4.27,10.67,10.94,0.00,0,No,No
Surface Convection Parameters,CORRIDOR_NW_FLR_3_WALL_2_SOUTH,0,0.00,0.00,0.00,0,4.27,10.67,10.94,0.00,0,No,No
Surface Convection Parameters,CORRIDOR_NW_FLR_3_WALL_2_WEST,0,0.00,0.00,0.00,0,4.27,10.67,10.94,0.00,0,No,No
Surface Convection Parameters,CORRIDOR_NW_FLR_3_WALL_3_EAST,0,0.00,0.00,0.00,0,4.27,10.67,10.94,0.00,0,No,No
Surface Convection Parameters,CORRIDOR_NW_FLR_3_WALL_3_NORTH,0,0.00,0.00,0.00,0,4.27,10.67,10.94,0.00,0,No,No
[...]
HeatTransfer_Surface,PATROOM8_FLR_3_FLOOR,Floor,,CTF - ConductionTransferFunction,INT-FLOOR-TOPSIDE,3.401,1.618,,27.87,27.87,27.87,0.00,180.00,6.10,4.57,0.00,PATROOM8_FLR_3_FLOOR,Other/Same Surface Int Conv,ASHRAETARP,NoSun,NoWind,1.00,0.00,1.00,0.00,4
HeatTransfer_Surface,PATROOM8_FLR_3_CEILING,Roof,,CTF - ConductionTransferFunction,INT-FLOOR-UNDERSIDE,3.401,1.965,,27.87,27.87,27.87,180.00,0.00,6.10,4.57,0.00,PATROOM8_FLR_3_CEILING,Other/Same Surface Int Conv,ASHRAETARP,NoSun,NoWind,0.00,1.00,0.00,1.00,4
HeatTransfer_Surface,PATROOM8_FLR_3 INTERNAL MASS,Internal Mass,,CTF - ConductionTransferFunction,INTERIORFURNISHINGS,0.800,0.800,,55.74,55.74,55.74,0.00,90.00,55.74,1.00,0.00,PATROOM8_FLR_3 INTERNAL MASS,Other/Same Surface Int Conv,ASHRAETARP,NoSun,NoWind,0.00,0.50,1.00,0.00,0
Zone_Surfaces,PATROOM8_FLR_4,    9
HeatTransfer_Surface,PATROOM8_FLR_4_WALL_EAST,Wall,,CTF - ConductionTransferFunction,INT-WALLS,6.299,2.511,,19.51,19.51,19.51,90.00,90.00,4.57,4.27,0.00,PATROOM8_FLR_4_WALL_EAST,Other/Same Surface Int Conv,ASHRAETARP,NoSun,NoWind,0.50,0.50,0.50,0.50,4
HeatTransfer_Surface,PATROOM8_FLR_4_WALL_NORTH,Wall,,CTF - ConductionTransferFunction,MASS NON-RES EXT WALL,0.780,0.698,,19.48,26.02,19.48,0.00,90.00,6.10,4.27,0.00,ExternalEnvironment,DOE-2,ASHRAETARP,SunExposed,WindExposed,0.50,0.50,0.50,0.50,4
HeatTransfer_Surface,PATROOM8_FLR_4_WALL_NORTH_WINDOW,Window,PATROOM8_FLR_4_WALL_NORTH,Window5 Detailed Fenestration,WINDOW RES FIXED,N/A,3.241,No,6.54,6.54,6.54,0.00,90.00,5.36,1.22,0.00,ExternalEnvironment,DOE-2,ASHRAETARP,SunExposed,WindExposed,0.50,0.50,0.50,0.50,4
HeatTransfer_Surface,PATROOM8_FLR_4_WALL_SOUTH,Wall,,CTF - ConductionTransferFunction,INT-WALLS,6.299,2.511,,26.02,26.02,26.02,180.00,90.00,6.10,4.27,0.00,PATROOM8_FLR_4_WALL_SOUTH,Other/Same Surface Int Conv,ASHRAETARP,NoSun,NoWind,0.50,0.50,0.50,0.50,4
HeatTransfer_Surface,PATROOM8_FLR_4_WALL_WEST,Wall,,CTF - ConductionTransferFunction,MASS NON-RES EXT WALL,0.780,0.698,,14.61,19.51,14.61,270.00,90.00,4.57,4.27,0.00,ExternalEnvironment,DOE-2,ASHRAETARP,SunExposed,WindExposed,0.50,0.50,0.50,0.50,4
HeatTransfer_Surface,PATROOM8_FLR_4_WALL_WEST_WINDOW,Window,PATROOM8_FLR_4_WALL_WEST,Window5 Detailed Fenestration,WINDOW RES FIXED,N/A,3.241,No,4.91,4.91,4.91,270.00,90.00,4.02,1.22,0.00,ExternalEnvironment,DOE-2,ASHRAETARP,SunExposed,WindExposed,0.50,0.50,0.50,0.50,4
HeatTransfer_Surface,PATROOM8_FLR_4_FLOOR,Floor,,CTF - ConductionTransferFunction,INT-FLOOR-TOPSIDE,3.401,1.618,,27.87,27.87,27.87,0.00,180.00,6.10,4.57,0.00,PATROOM8_FLR_4_FLOOR,Other/Same Surface Int Conv,ASHRAETARP,NoSun,NoWind,1.00,0.00,1.00,0.00,4
HeatTransfer_Surface,PATROOM8_FLR_4_CEILING,Roof,,CTF - ConductionTransferFunction,INT-FLOOR-UNDERSIDE,3.401,1.965,,27.87,27.87,27.87,180.00,0.00,6.10,4.57,0.00,PATROOM8_FLR_4_CEILING,Other/Same Surface Int Conv,ASHRAETARP,NoSun,NoWind,0.00,1.00,0.00,1.00,4
HeatTransfer_Surface,PATROOM8_FLR_4 INTERNAL MASS,Internal Mass,,CTF - ConductionTransferFunction,INTERIORFURNISHINGS,0.800,0.800,,55.74,55.74,55.74,0.00,90.00,55.74,1.00,0.00,PATROOM8_FLR_4 INTERNAL MASS,Other/Same Surface Int Conv,ASHRAETARP,NoSun,NoWind,0.00,0.50,1.00,0.00,0
Zone_Surfaces,PHYSTHERAPY_FLR_3,    7
HeatTransfer_Surface,PHYSTHERAPY_FLR_3_WALL_EAST,Wall,,CTF - ConductionTransferFunction,INT-WALLS,6.299,2.511,,97.57,97.57,97.57,90.00,90.00,22.86,4.27,0.00,CORRIDOR_SE_FLR_3_WALL_1_WEST,Other/Same Surface Int Conv,ASHRAETARP,NoSun,NoWind,0.50,0.50,0.50,0.50,4
HeatTransfer_Surface,PHYSTHERAPY_FLR_3_WALL_NORTH,Wall,,CTF - ConductionTransferFunction,INT-WALLS,6.299,2.511,,91.07,91.07,91.07,0.00,90.00,21.34,4.27,0.00,CORRIDOR_NW_FLR_3_WALL_2_SOUTH,Other/Same Surface Int Conv,ASHRAETARP,NoSun,NoWind,0.50,0.50,0.50,0.50,4
HeatTransfer_Surface,PHYSTHERAPY_FLR_3_WALL_SOUTH,Wall,,CTF - ConductionTransferFunction,INT-WALLS,6.299,2.511,,91.07,91.07,91.07,180.00,90.00,21.34,4.27,0.00,NURSESAT_LOBBY_FLR_3_WALL_1_NORTH,Other/Same Surface Int Conv,ASHRAETARP,NoSun,NoWind,0.50,0.50,0.50,0.50,4
HeatTransfer_Surface,PHYSTHERAPY_FLR_3_WALL_WEST,Wall,,CTF - ConductionTransferFunction,INT-WALLS,6.299,2.511,,97.57,97.57,97.57,270.00,90.00,22.86,4.27,0.00,NURSESAT_LOBBY_FLR_3_WALL_1_EAST,Other/Same Surface Int Conv,ASHRAETARP,NoSun,NoWind,0.50,0.50,0.50,0.50,4
HeatTransfer_Surface,PHYSTHERAPY_FLR_3_FLOOR,Floor,,CTF - ConductionTransferFunction,INT-FLOOR-TOPSIDE,3.401,1.618,,487.74,487.74,487.74,0.00,180.00,21.34,22.86,0.00,PHYSTHERAPY_FLR_3_FLOOR,Other/Same Surface Int Conv,ASHRAETARP,NoSun,NoWind,1.00,0.00,1.00,0.00,4
HeatTransfer_Surface,PHYSTHERAPY_FLR_3_CEILING,Roof,,CTF - ConductionTransferFunction,INT-FLOOR-UNDERSIDE,3.401,1.965,,487.74,487.74,487.74,180.00,0.00,21.34,22.86,0.00,PHYSTHERAPY_FLR_3_CEILING,Other/Same Surface Int Conv,ASHRAETARP,NoSun,NoWind,0.00,1.00,0.00,1.00,4
HeatTransfer_Surface,PHYSTHERAPY_FLR_3 INTERNAL MASS,Internal Mass,,CTF - ConductionTransferFunction,INTERIORFURNISHINGS,0.800,0.800,,975.48,975.48,975.48,0.00,90.00,975.48,1.00,0.00,PHYSTHERAPY_FLR_3 INTERNAL MASS,Other/Same Surface Int Conv,ASHRAETARP,NoSun,NoWind,0.00,0.50,1.00,0.00,0
Zone_Surfaces,RADIOLOGY_FLR_4,    7
HeatTransfer_Surface,RADIOLOGY_FLR_4_WALL_EAST,Wall,,CTF - ConductionTransferFunction,INT-WALLS,6.299,2.511,,97.57,97.57,97.57,90.00,90.00,22.86,4.27,0.00,CORRIDOR_SE_FLR_4_WALL_1_WEST,Other/Same Surface Int Conv,ASHRAETARP,NoSun,NoWind,0.50,0.50,0.50,0.50,4
HeatTransfer_Surface,RADIOLOGY_FLR_4_WALL_NORTH,Wall,,CTF - ConductionTransferFunction,INT-WALLS,6.299,2.511,,91.07,91.07,91.07,0.00,90.00,21.34,4.27,0.00,CORRIDOR_NW_FLR_4_WALL_2_SOUTH,Other/Same Surface Int Conv,ASHRAETARP,NoSun,NoWind,0.50,0.50,0.50,0.50,4
HeatTransfer_Surface,RADIOLOGY_FLR_4_WALL_SOUTH,Wall,,CTF - ConductionTransferFunction,INT-WALLS,6.299,2.511,,91.07,91.07,91.07,180.00,90.00,21.34,4.27,0.00,NURSESAT_LOBBY_FLR_4_WALL_1_NORTH,Other/Same Surface Int Conv,ASHRAETARP,NoSun,NoWind,0.50,0.50,0.50,0.50,4
HeatTransfer_Surface,RADIOLOGY_FLR_4_WALL_WEST,Wall,,CTF - ConductionTransferFunction,INT-WALLS,6.299,2.511,,97.57,97.57,97.57,270.00,90.00,22.86,4.27,0.00,NURSESAT_LOBBY_FLR_4_WALL_1_EAST,Other/Same Surface Int Conv,ASHRAETARP,NoSun,NoWind,0.50,0.50,0.50,0.50,4
HeatTransfer_Surface,RADIOLOGY_FLR_4_FLOOR,Floor,,CTF - ConductionTransferFunction,INT-FLOOR-TOPSIDE,3.401,1.618,,487.74,487.74,487.74,0.00,180.00,21.34,22.86,0.00,RADIOLOGY_FLR_4_FLOOR,Other/Same Surface Int Conv,ASHRAETARP,NoSun,NoWind,1.00,0.00,1.00,0.00,4
HeatTransfer_Surface,RADIOLOGY_FLR_4_CEILING,Roof,,CTF - ConductionTransferFunction,INT-FLOOR-UNDERSIDE,3.401,1.965,,487.74,487.74,487.74,180.00,0.00,21.34,22.86,0.00,RADIOLOGY_FLR_4_CEILING,Other/Same Surface Int Conv,ASHRAETARP,NoSun,NoWind,0.00,1.00,0.00,1.00,4
HeatTransfer_Surface,RADIOLOGY_FLR_4 INTERNAL MASS,Internal Mass,,CTF - ConductionTransferFunction,INTERIORFURNISHINGS,0.800,0.800,,975.48,975.48,975.48,0.00,90.00,975.48,1.00,0.00,RADIOLOGY_FLR_4 INTERNAL MASS,Other/Same Surface Int Conv,ASHRAETARP,NoSun,NoWind,0.00,0.50,1.00,0.00,0
! <Environment>,Environment Name,Environment Type, Start Date, End Date, Start DayOfWeek, Duration {#days}, Source:Start DayOfWeek,  Use Daylight Saving, Use Holidays, Apply Weekend Holiday Rule,  Use Rain Values, Use Snow Values
! <Environment:Special Days>, Special Day Name, Special Day Type, Source, Start Date, Duration {#days}
! <Environment:Daylight Saving>, Daylight Saving Indicator, Source, Start Date, End Date
! <Environment:WarmupDays>, NumberofWarmupDays
Environment,Chicago Ohare Intl Ap IL USA TMY3 WMO#=725300,WeatherFileRunPeriod,06/08,06/08,Monday,1,Use RunPeriod Specified Day,No ,No ,No ,Yes,Yes
Environment:Daylight Saving,Yes,InputFile,03/08,11/01
Environment:Special Days,NEW YEARS DAY,Holiday,InputFile,01/01,  1
Environment:Special Days,VETERANS DAY,Holiday,InputFile,11/11,  1
Environment:Special Days,CHRISTMAS,Holiday,InputFile,12/25,  1
Environment:Special Days,INDEPENDENCE DAY,Holiday,InputFile,07/04,  1
Environment:Special Days,MLK DAY,Holiday,InputFile,01/19,  1
Environment:Special Days,PRESIDENTS DAY,Holiday,InputFile,02/16,  1
Environment:Special Days,MEMORIAL DAY,Holiday,InputFile,05/25,  1
Environment:Special Days,LABOR DAY,Holiday,InputFile,09/07,  1
Environment:Special Days,COLUMBUS DAY,Holiday,InputFile,10/12,  1
Environment:Special Days,THANKSGIVING,Holiday,InputFile,11/26,  1
Environment:WarmupDays,  6
! <Warmup Convergence Information>,Zone Name,Environment Type/Name,Average Warmup Temperature Difference {deltaC},Std Dev Warmup Temperature Difference {deltaC},Max Temperature Pass/Fail Convergence,Min Temperature Pass/Fail Convergence,Average Warmup Load Difference {W},Std Dev Warmup Load Difference {W},Heating Load Pass/Fail Convergence,Cooling Load Pass/Fail Convergence
 Warmup Convergence Information,BASEMENT,RunPeriod: Chicago Ohare Intl Ap IL USA TMY3 WMO#=725300,2.0178996911E-003,6.6911987622E-003,Pass,Pass,1.8610262974E-003,3.8489462279E-002,Pass,Pass
 Warmup Convergence Information,CORRIDOR_FLR_1,RunPeriod: Chicago Ohare Intl Ap IL USA TMY3 WMO#=725300,4.0938740277E-003,4.4636245611E-002,Pass,Pass,9.1550501381E-002,1.6329682412,Pass,Pass
 Warmup Convergence Information,CORRIDOR_FLR_2,RunPeriod: Chicago Ohare Intl Ap IL USA TMY3 WMO#=725300,4.0795899684E-003,4.3675048623E-002,Pass,Pass,2.4254883633E-002,0.3741275241,Pass,Pass
 Warmup Convergence Information,CORRIDOR_FLR_5,RunPeriod: Chicago Ohare Intl Ap IL USA TMY3 WMO#=725300,4.0823276873E-003,4.8906566972E-002,Pass,Pass,1.8242806004E-002,0.2567084648,Pass,Pass
 Warmup Convergence Information,CORRIDOR_NW_FLR_3,RunPeriod: Chicago Ohare Intl Ap IL USA TMY3 WMO#=725300,1.5418531430E-003,1.5746362366E-003,Pass,Pass,4.7604898559E-004,9.2483522710E-004,Pass,Pass
 Warmup Convergence Information,CORRIDOR_NW_FLR_4,RunPeriod: Chicago Ohare Intl Ap IL USA TMY3 WMO#=725300,1.5886775669E-003,1.5919358425E-003,Pass,Pass,4.8285184838E-004,9.2724161531E-004,Pass,Pass
 Warmup Convergence Information,CORRIDOR_SE_FLR_3,RunPeriod: Chicago Ohare Intl Ap IL USA TMY3 WMO#=725300,1.5328271867E-003,1.5735779893E-003,Pass,Pass,4.7374065534E-004,9.2145791833E-004,Pass,Pass
 Warmup Convergence Information,CORRIDOR_SE_FLR_4,RunPeriod: Chicago Ohare Intl Ap IL USA TMY3 WMO#=725300,1.5833606049E-003,1.5915720080E-003,Pass,Pass,4.8041674948E-004,9.2265785769E-004,Pass,Pass
 Warmup Convergence Information,DINING_FLR_5,RunPeriod: Chicago Ohare Intl Ap IL USA TMY3 WMO#=725300,5.5151960025E-003,5.0077346431E-002,Pass,Pass,4.9009535313E-002,1.2261916836,Pass,Pass
 Warmup Convergence Information,ER_EXAM1_MULT4_FLR_1,RunPeriod: Chicago Ohare Intl Ap IL USA TMY3 WMO#=725300,2.3439974661E-003,4.3384993547E-003,Pass,Pass,2.4988543221E-003,4.2984576467E-003,Pass,Pass
 Warmup Convergence Information,ER_EXAM3_MULT4_FLR_1,RunPeriod: Chicago Ohare Intl Ap IL USA TMY3 WMO#=725300,5.4728436467E-003,7.2516665132E-003,Pass,Pass,1.0510622217E-003,1.6909746135E-003,Pass,Pass
 Warmup Convergence Information,ER_NURSESTN_LOBBY_FLR_1,RunPeriod: Chicago Ohare Intl Ap IL USA TMY3 WMO#=725300,3.0891564085E-003,5.3527068107E-003,Pass,Pass,4.2277193542E-004,7.5111539996E-004,Pass,Pass
 Warmup Convergence Information,ER_TRAUMA1_FLR_1,RunPeriod: Chicago Ohare Intl Ap IL USA TMY3 WMO#=725300,1.5552151640E-003,1.1408960048E-003,Pass,Pass,2.8145985648E-003,7.1933716878E-003,Pass,Pass
 Warmup Convergence Information,ER_TRAUMA2_FLR_1,RunPeriod: Chicago Ohare Intl Ap IL USA TMY3 WMO#=725300,1.4967889263E-003,1.1673399864E-003,Pass,Pass,2.7896265834E-003,7.3024116261E-003,Pass,Pass
 Warmup Convergence Information,ER_TRIAGE_MULT4_FLR_1,RunPeriod: Chicago Ohare Intl Ap IL USA TMY3 WMO#=725300,2.4455139446E-003,5.4302004164E-003,Pass,Pass,2.0502146691E-003,4.4413748974E-003,Pass,Pass
 Warmup Convergence Information,ICU_FLR_2,RunPeriod: Chicago Ohare Intl Ap IL USA TMY3 WMO#=725300,2.7578584032E-003,6.5877150006E-003,Pass,Pass,5.3073614630E-004,1.4982880168E-003,Pass,Pass
 Warmup Convergence Information,ICU_NURSESTN_LOBBY_FLR_2,RunPeriod: Chicago Ohare Intl Ap IL USA TMY3 WMO#=725300,3.4808658996E-003,6.8399855106E-003,Pass,Pass,4.3871181919E-004,8.3710713964E-004,Pass,Pass
 Warmup Convergence Information,IC_PATROOM1_MULT5_FLR_2,RunPeriod: Chicago Ohare Intl Ap IL USA TMY3 WMO#=725300,1.5373532052E-003,1.5890752671E-003,Pass,Pass,2.8412108691E-003,8.3538069429E-003,Pass,Pass
 Warmup Convergence Information,IC_PATROOM2_FLR_2,RunPeriod: Chicago Ohare Intl Ap IL USA TMY3 WMO#=725300,2.8170180997E-003,3.9091867437E-003,Pass,Pass,3.1422228946E-003,7.7025155869E-003,Pass,Pass
 Warmup Convergence Information,IC_PATROOM3_MULT6_FLR_2,RunPeriod: Chicago Ohare Intl Ap IL USA TMY3 WMO#=725300,1.1682969290E-003,9.0006143367E-004,Pass,Pass,3.8915251141E-003,8.8607121455E-003,Pass,Pass
 Warmup Convergence Information,KITCHEN_FLR_5,RunPeriod: Chicago Ohare Intl Ap IL USA TMY3 WMO#=725300,5.3648157855E-003,6.2684893159E-002,Pass,Pass,0.1857431346,6.4225135578,Pass,Pass
 Warmup Convergence Information,LAB_FLR_3,RunPeriod: Chicago Ohare Intl Ap IL USA TMY3 WMO#=725300,3.5775825785E-003,1.0148511463E-002,Pass,Pass,8.4746679778E-004,2.5325537908E-003,Pass,Pass
 Warmup Convergence Information,LAB_FLR_4,RunPeriod: Chicago Ohare Intl Ap IL USA TMY3 WMO#=725300,3.7665434915E-003,1.0301672303E-002,Pass,Pass,8.7498769911E-004,2.5300785641E-003,Pass,Pass
 Warmup Convergence Information,LOBBY_RECORDS_FLR_1,RunPeriod: Chicago Ohare Intl Ap IL USA TMY3 WMO#=725300,4.0798923569E-003,4.6454447492E-002,Pass,Pass,0.4167791851,12.2438313680,Pass,Pass
 Warmup Convergence Information,NURSESTN_LOBBY_FLR_3,RunPeriod: Chicago Ohare Intl Ap IL USA TMY3 WMO#=725300,2.7180720188E-003,4.5544164346E-003,Pass,Pass,5.2106460349E-004,9.1722295004E-004,Pass,Pass
 Warmup Convergence Information,NURSESTN_LOBBY_FLR_4,RunPeriod: Chicago Ohare Intl Ap IL USA TMY3 WMO#=725300,2.7744822172E-003,4.5607512192E-003,Pass,Pass,5.2879522533E-004,9.1966578974E-004,Pass,Pass
 Warmup Convergence Information,NURSESTN_LOBBY_FLR_5,RunPeriod: Chicago Ohare Intl Ap IL USA TMY3 WMO#=725300,4.7976975963E-003,4.8901643276E-002,Pass,Pass,3.1222357288,106.8587786804,Pass,Pass
 Warmup Convergence Information,OR1_FLR_2,RunPeriod: Chicago Ohare Intl Ap IL USA TMY3 WMO#=725300,4.5099333064E-003,6.5820060088E-003,Pass,Pass,1.9649100925E-003,4.3924252375E-003,Pass,Pass
 Warmup Convergence Information,OR2_MULT5_FLR_2,RunPeriod: Chicago Ohare Intl Ap IL USA TMY3 WMO#=725300,7.6618096796E-003,8.8332955439E-003,Pass,Pass,1.2517250061E-003,2.4025506053E-003,Pass,Pass
 Warmup Convergence Information,OR3_FLR_2,RunPeriod: Chicago Ohare Intl Ap IL USA TMY3 WMO#=725300,7.6247353800E-003,8.8319244880E-003,Pass,Pass,1.2541979613E-003,2.4238148953E-003,Pass,Pass
 Warmup Convergence Information,OR4_FLR_2,RunPeriod: Chicago Ohare Intl Ap IL USA TMY3 WMO#=725300,7.7233745185E-003,9.1896017597E-003,Pass,Pass,1.2723627559E-003,2.6179063524E-003,Pass,Pass
 Warmup Convergence Information,OR_NURSESTN_LOBBY_FLR_2,RunPeriod: Chicago Ohare Intl Ap IL USA TMY3 WMO#=725300,3.5644395322E-003,4.1071577443E-002,Pass,Pass,1.7986237700E-002,0.5544881952,Pass,Pass
 Warmup Convergence Information,OFFICE1_FLR_5,RunPeriod: Chicago Ohare Intl Ap IL USA TMY3 WMO#=725300,5.0690406739E-003,4.8509354888E-002,Pass,Pass,3.7703942865E-002,0.9528434235,Pass,Pass
 Warmup Convergence Information,OFFICE1_MULT4_FLR_1,RunPeriod: Chicago Ohare Intl Ap IL USA TMY3 WMO#=725300,3.9077887340E-003,3.9761649322E-002,Pass,Pass,2.8749775053E-002,0.7298745688,Pass,Pass
 Warmup Convergence Information,OFFICE2_MULT5_FLR_5,RunPeriod: Chicago Ohare Intl Ap IL USA TMY3 WMO#=725300,5.2699733844E-003,4.9086111870E-002,Pass,Pass,0.1625087602,4.2429244578,Pass,Pass
 Warmup Convergence Information,OFFICE3_FLR_5,RunPeriod: Chicago Ohare Intl Ap IL USA TMY3 WMO#=725300,5.1036284561E-003,4.8375168598E-002,Pass,Pass,3.4278015454E-002,0.9489793693,Pass,Pass
 Warmup Convergence Information,OFFICE4_MULT6_FLR_5,RunPeriod: Chicago Ohare Intl Ap IL USA TMY3 WMO#=725300,4.9618718809E-003,5.0705090392E-002,Pass,Pass,5.0173682211E-002,1.1842961847,Pass,Pass
 Warmup Convergence Information,PATROOM1_MULT10_FLR_3,RunPeriod: Chicago Ohare Intl Ap IL USA TMY3 WMO#=725300,1.2609991075E-003,1.2011337377E-003,Pass,Pass,3.8649811661E-003,7.7518087120E-003,Pass,Pass
 Warmup Convergence Information,PATROOM1_MULT10_FLR_4,RunPeriod: Chicago Ohare Intl Ap IL USA TMY3 WMO#=725300,9.1004871250E-004,6.7612295402E-004,Pass,Pass,3.6997220164E-003,7.9190570096E-003,Pass,Pass
 Warmup Convergence Information,PATROOM2_FLR_3,RunPeriod: Chicago Ohare Intl Ap IL USA TMY3 WMO#=725300,3.4492095189E-003,3.7550309649E-003,Pass,Pass,2.5775079846E-003,6.0352595644E-003,Pass,Pass
 Warmup Convergence Information,PATROOM2_FLR_4,RunPeriod: Chicago Ohare Intl Ap IL USA TMY3 WMO#=725300,8.5374151876E-004,6.5419661898E-004,Pass,Pass,3.1749904217E-003,6.6447540741E-003,Pass,Pass
 Warmup Convergence Information,PATROOM3_MULT10_FLR_3,RunPeriod: Chicago Ohare Intl Ap IL USA TMY3 WMO#=725300,8.1028312558E-004,6.4817178478E-004,Pass,Pass,3.2548396061E-003,6.6517424887E-003,Pass,Pass
 Warmup Convergence Information,PATROOM3_MULT10_FLR_4,RunPeriod: Chicago Ohare Intl Ap IL USA TMY3 WMO#=725300,1.7141526081E-003,1.9634519530E-003,Pass,Pass,3.1785954893E-003,6.4333552807E-003,Pass,Pass
 Warmup Convergence Information,PATROOM4_FLR_3,RunPeriod: Chicago Ohare Intl Ap IL USA TMY3 WMO#=725300,8.6582331173E-004,6.4406992011E-004,Pass,Pass,3.2569065028E-003,6.7959814939E-003,Pass,Pass
 Warmup Convergence Information,PATROOM4_FLR_4,RunPeriod: Chicago Ohare Intl Ap IL USA TMY3 WMO#=725300,3.0901139331E-003,3.4225581139E-003,Pass,Pass,2.9854921369E-003,6.2054360260E-003,Pass,Pass
 Warmup Convergence Information,PATROOM5_MULT10_FLR_3,RunPeriod: Chicago Ohare Intl Ap IL USA TMY3 WMO#=725300,9.5786367351E-004,6.8486190656E-004,Pass,Pass,4.0449985903E-003,7.7255633855E-003,Pass,Pass
 Warmup Convergence Information,PATROOM5_MULT10_FLR_4,RunPeriod: Chicago Ohare Intl Ap IL USA TMY3 WMO#=725300,9.6212887837E-004,6.8902717532E-004,Pass,Pass,4.0811939583E-003,7.9170512958E-003,Pass,Pass
 Warmup Convergence Information,PATROOM6_FLR_3,RunPeriod: Chicago Ohare Intl Ap IL USA TMY3 WMO#=725300,2.7212794378E-003,3.7005285642E-003,Pass,Pass,3.5662623410E-003,6.9899645152E-003,Pass,Pass
 Warmup Convergence Information,PATROOM6_FLR_4,RunPeriod: Chicago Ohare Intl Ap IL USA TMY3 WMO#=725300,1.6006845387E-003,1.9958541685E-003,Pass,Pass,3.6616382519E-003,7.3720806096E-003,Pass,Pass
 Warmup Convergence Information,PATROOM7_MULT10_FLR_3,RunPeriod: Chicago Ohare Intl Ap IL USA TMY3 WMO#=725300,1.0207706495E-003,7.6598848514E-004,Pass,Pass,4.4437828100E-003,8.1667216699E-003,Pass,Pass
 Warmup Convergence Information,PATROOM7_MULT10_FLR_4,RunPeriod: Chicago Ohare Intl Ap IL USA TMY3 WMO#=725300,1.0080164377E-003,7.6866460659E-004,Pass,Pass,4.3836934784E-003,8.0385806128E-003,Pass,Pass
 Warmup Convergence Information,PATROOM8_FLR_3,RunPeriod: Chicago Ohare Intl Ap IL USA TMY3 WMO#=725300,2.5848968411E-003,3.3844613501E-003,Pass,Pass,3.9022517778E-003,7.4888930443E-003,Pass,Pass
 Warmup Convergence Information,PATROOM8_FLR_4,RunPeriod: Chicago Ohare Intl Ap IL USA TMY3 WMO#=725300,9.9176774762E-004,7.2591516146E-004,Pass,Pass,3.9084782844E-003,7.5403936023E-003,Pass,Pass
 Warmup Convergence Information,PHYSTHERAPY_FLR_3,RunPeriod: Chicago Ohare Intl Ap IL USA TMY3 WMO#=725300,3.3159029186E-003,6.4794106259E-003,Pass,Pass,5.5139007265E-004,1.0447044602E-003,Pass,Pass
 Warmup Convergence Information,RADIOLOGY_FLR_4,RunPeriod: Chicago Ohare Intl Ap IL USA TMY3 WMO#=725300,4.6551990596E-003,1.3339821003E-002,Pass,Pass,7.7137845575E-004,2.2019265231E-003,Pass,Pass
! <Program Control Information:Threads/Parallel Sims>, Threading Supported,Maximum Number of Threads, Env Set Threads (OMP_NUM_THREADS), EP Env Set Threads (EP_OMP_NUM_THREADS), IDF Set Threads, Number of Threads Used (Interior Radiant Exchange), Number Nominal Surfaces, Number Parallel Sims
Program Control:Threads/Parallel Sims, No,1, N/A, N/A, N/A, N/A, N/A, N/A
End of Data
