  Processing Data Dictionary (Energy+.idd) File -- Complete
  Maximum number of Alpha Args=        4500
  Maximum number of Numeric Args=       21040
  Number of Object Definitions=         689
  Number of Section Definitions=           2
  Total Number of Alpha Fields=       16712
  Total Number of Numeric Fields=       38446
  Total Number of Fields=       55158
  Processing Input Data File (in.idf) -- Start
      1 !-Generator IDFEditor 1.34
      2 !-Option OriginalOrderTop UseSpecialFormat
      3 !-NOTE: All comments with '!-' are ignored by the IDFEditor and are generated automatically.
      4 !-      Use '!' comments if they need to be retained when using the IDFEditor.
      5 ! 5ZoneAirCooled.idf
      6 ! Basic file description:  1 story building divided into 4 exterior and one interior conditioned zones and return plenum.
      7 !
      8 ! Highlights:              Electric chiller with air cooled condenser; autosized preheating and precooling water coils in the
      9 !                          outside air stream controlled to preheat and precool setpoints.
     10 !
     11 ! Simulation Location/Run: CHICAGO_IL_USA TMY2-94846, 2 design days, 2 run periods,
     12 !                          Run Control executes the run periods using the weather file
     13 !
     14 ! Location:                Chicago, IL
     15 !
     16 ! Design Days:             CHICAGO_IL_USA Annual Heating 99% Design Conditions DB, MaxDB= -17.3°C
     17 !                          CHICAGO_IL_USA Annual Cooling 1% Design Conditions, MaxDB=  31.5°C MCWB=  23.0°C
     18 !
     19 ! Run Period (Weather File): 1/1 through 12/31, CHICAGO_IL_USA TMY2-94846
     20 !
     21 ! Run Control:             Zone and System sizing with weather file run control (no design days run)
     22 !
     23 ! Building: Single floor rectangular building 100 ft x 50 ft. 5 zones - 4 exterior, 1 interior, zone height 8 feet.
     24 !           Exterior zone depth is 12 feet. There is a 2 foot high return plenum: the overall building height is
     25 !           10 feet. There are windows on all 4 facades; the south and north facades have glass doors.
     26 !           The south facing glass is shaded by overhangs. The walls are woodshingle over plywood, R11 insulation,
     27 !           and gypboard. The roof is a gravel built up roof with R-3 mineral board insulation and plywood sheathing.
     28 !           The windows are of various single and double pane construction with 3mm and 6mm glass and either 6mm or
     29 !           13mm argon or air gap.  The window to wall ratio is approxomately 0.29.
     30 !           The south wall and door have overhangs.
     31 !
     32 !           The building is oriented 30 degrees east of north.
     33 !
     34 ! Floor Area:        463.6 m2 (5000 ft2)
     35 ! Number of Stories: 1
     36 !
     37 ! Zone Description Details:
     38 !
     39 !      (0,15.2,0)                      (30.5,15.2,0)
     40 !           _____   ________                ____
     41 !         |\     ***        ****************   /|
     42 !         | \                                 / |
     43 !         |  \                 (26.8,11.6,0) /  |
     44 !         *   \_____________________________/   *
     45 !         *    |(3.7,11.6,0)               |    *
     46 !         *    |                           |    *
     47 !         *    |                           |    *
     48 !         *    |               (26.8,3.7,0)|    *
     49 !         *    |___________________________|    *
     50 !         *   / (3.7,3.7,0)                 \   *
     51 !         |  /                               \  |
     52 !         | /                                 \ |
     53 !         |/___******************___***________\|
     54 !          |       Overhang        |   |
     55 !          |_______________________|   |   window/door = *
     56 !                                  |___|
     57 !
     58 !      (0,0,0)                            (30.5,0,0)
     59 !
     60 ! Internal gains description:     lighting is 1.5 watts/ft2, office equip is 1.0 watts/ft2. There is 1 occupant
     61 !                                 per 100 ft2 of floor area. The infiltration is 0.25 air changes per hour.
     62 !
     63 ! Interzone Surfaces:             6 interzone surfaces (see diagram)
     64 ! Internal Mass:                  None
     65 ! People:                         50
     66 ! Lights:                         7500 W
     67 ! Windows:                        4 ea.: 1) Double pane clear, 3mm glass, 13mm air gap
     68 !                                        2) Double pane clear, 3mm glass, 13mm argon gap
     69 !                                        3) Double pane clear, 6mm glass, 6mm air gap
     70 !                                        4) Double pane lowE,  6mm lowE glass outside, 6mm air gap, 6mm clear glass
     71 !
     72 ! Doors:                          2 ea.:    Single pane grey,  3mm glass
     73 !
     74 ! Detached Shading:               None
     75 ! Daylight:                       None
     76 ! Natural Ventilation:            None
     77 ! Compact Schedules:              Yes
     78 !
     79 ! HVAC:                           Standard VAV system with outside air, hot water reheat coils,
     80 !                                 central chilled water cooling coil. Central Plant is single hot water
     81 !                                 boiler, electric compression chiller with air cooled condenser.
     82 !                                 All equipment is autosized. HW and ChW coils are used in the outside air
     83 !                                 stream to precondition the outside air.
     84 !
     85 ! Zonal Equipment:                AirTerminal:SingleDuct:VAV:Reheat
     86 ! Central Air Handling Equipment: Yes
     87 ! System Equipment Autosize:      Yes
     88 ! Purchased Cooling:              None
     89 ! Purchased Heating:              None
     90 ! Coils:                          Coil:Cooling:Water, Coil:Heating:Water
     91 ! Pumps:                          Pump:VariableSpeed
     92 ! Boilers:                        Boiler:HotWater
     93 ! Chillers:                       Chiller:Electric
     94 !
     95 ! Results:
     96 ! Standard Reports:               None
     97 ! Timestep or Hourly Variables:   Hourly
     98 ! Time bins Report:               None
     99 ! HTML Report:                    None
    100 ! Environmental Emissions:        None
    101 ! Utility Tariffs:                None
    102 
    103   Version,8.0;
    104 
    105   Building,
    106     Building,                !- Name
    107     30.,                     !- North Axis {deg}
    108     City,                    !- Terrain
    109     0.04,                    !- Loads Convergence Tolerance Value
    110     0.4,                     !- Temperature Convergence Tolerance Value {deltaC}
    111     FullExterior,            !- Solar Distribution
    112     25,                      !- Maximum Number of Warmup Days
    113     6;                       !- Minimum Number of Warmup Days
    114 
    115   Timestep,60;
    116 
    117   SurfaceConvectionAlgorithm:Inside,Simple;
    118 
    119   SurfaceConvectionAlgorithm:Outside,SimpleCombined;
    120 
    121   HeatBalanceAlgorithm,ConductionTransferFunction;
    122 
    123   GlobalGeometryRules,
    124     UpperLeftCorner,         !- Starting Vertex Position
    125     CounterClockWise,        !- Vertex Entry Direction
    126     relative;                !- Coordinate System
    127 
    128   ScheduleTypeLimits,
    129     Any Number;              !- Name
    130 
    131   ScheduleTypeLimits,
    132     Fraction,                !- Name
    133     0.0,                     !- Lower Limit Value
    134     1.0,                     !- Upper Limit Value
    135     CONTINUOUS;              !- Numeric Type
    136 
    137   ScheduleTypeLimits,
    138     Temperature,             !- Name
    139     -60,                     !- Lower Limit Value
    140     200,                     !- Upper Limit Value
    141     CONTINUOUS,              !- Numeric Type
    142     Temperature;             !- Unit Type
    143 
    144   ScheduleTypeLimits,
    145     Control Type,            !- Name
    146     0,                       !- Lower Limit Value
    147     4,                       !- Upper Limit Value
    148     DISCRETE;                !- Numeric Type
    149 
    150   ScheduleTypeLimits,
    151     On/Off,                  !- Name
    152     0,                       !- Lower Limit Value
    153     1,                       !- Upper Limit Value
    154     DISCRETE;                !- Numeric Type
    155 
    156   ScheduleTypeLimits,
    157     FlowRate,                !- Name
    158     0.0,                     !- Lower Limit Value
    159     10,                      !- Upper Limit Value
    160     CONTINUOUS;              !- Numeric Type
    161 
    162   RunPeriod,
    163     ,                        !- Name
    164     6,                       !- Begin Month
    165     1,                       !- Begin Day of Month
    166     6,                      !- End Month
    167     4,                      !- End Day of Month
    168     Tuesday,                 !- Day of Week for Start Day
    169     Yes,                     !- Use Weather File Holidays and Special Days
    170     Yes,                     !- Use Weather File Daylight Saving Period
    171     No,                      !- Apply Weekend Holiday Rule
    172     Yes,                     !- Use Weather File Rain Indicators
    173     Yes;                     !- Use Weather File Snow Indicators
    174 
    175   ExternalInterface,
    176     PtolemyServer;           !- Name of External Interface
    177 
    178 
    179 !  RunPeriod,
    180 !    1,                       !- Begin Month
    181 !    14,                      !- Begin Day Of Month
    182 !    1,                       !- End Month
    183 !    14,                      !- End Day Of Month
    184 !    Tuesday,                 !- Day Of Week For Start Day
    185 !    Yes,                     !- Use WeatherFile Holidays/Special Days
    186 !    Yes,                     !- Use WeatherFile DaylightSavingPeriod
    187 !    No,                      !- Apply Weekend Holiday Rule
    188 !    Yes,                     !- Use WeatherFile Rain Indicators
    189 !    Yes;                     !- Use WeatherFile Snow Indicators
    190 !  RunPeriod,
    191 !    7,                       !- Begin Month
    192 !    7,                       !- Begin Day Of Month
    193 !    7,                       !- End Month
    194 !    7,                       !- End Day Of Month
    195 !    Tuesday,                 !- Day Of Week For Start Day
    196 !    Yes,                     !- Use WeatherFile Holidays/Special Days
    197 !    Yes,                     !- Use WeatherFile DaylightSavingPeriod
    198 !    No,                      !- Apply Weekend Holiday Rule
    199 !    Yes,                     !- Use WeatherFile Rain Indicators
    200 !    Yes;                     !- Use WeatherFile Snow Indicators
    201 
    202   Site:Location,
    203     CHICAGO_IL_USA TMY2-94846,  !- Name
    204     41.78,                   !- Latitude {deg}
    205     -87.75,                  !- Longitude {deg}
    206     -6.00,                   !- Time Zone {hr}
    207     190.00;                  !- Elevation {m}
    208 
    209   SimulationControl,
    210     Yes,                     !- Do Zone Sizing Calculation
    211     Yes,                     !- Do System Sizing Calculation
    212     Yes,                     !- Do Plant Sizing Calculation
    213     No,                      !- Run Simulation for Sizing Periods
    214     Yes;                     !- Run Simulation for Weather File Run Periods
    215 
    216 ! CHICAGO_IL_USA Annual Heating 99% Design Conditions DB, MaxDB= -17.3°C
    217 
    218   SizingPeriod:DesignDay,
    219     CHICAGO_IL_USA Annual Heating 99% Design Conditions DB,  !- Name
    220     1,                       !- Month
    221     21,                      !- Day of Month
    222     WinterDesignDay,         !- Day Type
    223     -17.3,                   !- Maximum Dry-Bulb Temperature {C}
    224     0.0,                     !- Daily Dry-Bulb Temperature Range {deltaC}
    225     ,                        !- Dry-Bulb Temperature Range Modifier Type
    226     ,                        !- Dry-Bulb Temperature Range Modifier Day Schedule Name
    227     Wetbulb,                 !- Humidity Condition Type
    228     -17.3,                   !- Wetbulb or DewPoint at Maximum Dry-Bulb {C}
    229     ,                        !- Humidity Condition Day Schedule Name
    230     ,                        !- Humidity Ratio at Maximum Dry-Bulb {kgWater/kgDryAir}
    231     ,                        !- Enthalpy at Maximum Dry-Bulb {J/kg}
    232     ,                        !- Daily Wet-Bulb Temperature Range {deltaC}
    233     99063.,                  !- Barometric Pressure {Pa}
    234     4.9,                     !- Wind Speed {m/s}
    235     270,                     !- Wind Direction {deg}
    236     No,                      !- Rain Indicator
    237     No,                      !- Snow Indicator
    238     No,                      !- Daylight Saving Time Indicator
    239     ASHRAEClearSky,          !- Solar Model Indicator
    240     ,                        !- Beam Solar Day Schedule Name
    241     ,                        !- Diffuse Solar Day Schedule Name
    242     ,                        !- ASHRAE Clear Sky Optical Depth for Beam Irradiance (taub) {dimensionless}
    243     ,                        !- ASHRAE Clear Sky Optical Depth for Diffuse Irradiance (taud) {dimensionless}
    244     0.0;                     !- Sky Clearness
    245 
    246 ! CHICAGO_IL_USA Annual Cooling 1% Design Conditions, MaxDB=  31.5°C MCWB=  23.0°C
    247 
    248   SizingPeriod:DesignDay,
    249     CHICAGO_IL_USA Annual Cooling 1% Design Conditions DB/MCWB,  !- Name
    250     7,                       !- Month
    251     21,                      !- Day of Month
    252     SummerDesignDay,         !- Day Type
    253     31.5,                    !- Maximum Dry-Bulb Temperature {C}
    254     10.7,                    !- Daily Dry-Bulb Temperature Range {deltaC}
    255     ,                        !- Dry-Bulb Temperature Range Modifier Type
    256     ,                        !- Dry-Bulb Temperature Range Modifier Day Schedule Name
    257     Wetbulb,                 !- Humidity Condition Type
    258     23.0,                    !- Wetbulb or DewPoint at Maximum Dry-Bulb {C}
    259     ,                        !- Humidity Condition Day Schedule Name
    260     ,                        !- Humidity Ratio at Maximum Dry-Bulb {kgWater/kgDryAir}
    261     ,                        !- Enthalpy at Maximum Dry-Bulb {J/kg}
    262     ,                        !- Daily Wet-Bulb Temperature Range {deltaC}
    263     99063.,                  !- Barometric Pressure {Pa}
    264     5.3,                     !- Wind Speed {m/s}
    265     230,                     !- Wind Direction {deg}
    266     No,                      !- Rain Indicator
    267     No,                      !- Snow Indicator
    268     No,                      !- Daylight Saving Time Indicator
    269     ASHRAEClearSky,          !- Solar Model Indicator
    270     ,                        !- Beam Solar Day Schedule Name
    271     ,                        !- Diffuse Solar Day Schedule Name
    272     ,                        !- ASHRAE Clear Sky Optical Depth for Beam Irradiance (taub) {dimensionless}
    273     ,                        !- ASHRAE Clear Sky Optical Depth for Diffuse Irradiance (taud) {dimensionless}
    274     1.0;                     !- Sky Clearness
    275 
    276   Site:GroundTemperature:BuildingSurface,20.03,20.03,20.13,20.30,20.43,20.52,20.62,20.77,20.78,20.55,20.44,20.20;
    277 
    278   Material,
    279     WD10,                    !- Name
    280     MediumSmooth,            !- Roughness
    281     0.667,                   !- Thickness {m}
    282     0.115,                   !- Conductivity {W/m-K}
    283     513,                     !- Density {kg/m3}
    284     1381,                    !- Specific Heat {J/kg-K}
    285     0.9,                     !- Thermal Absorptance
    286     0.78,                    !- Solar Absorptance
    287     0.78;                    !- Visible Absorptance
    288 
    289   Material,
    290     RG01,                    !- Name
    291     Rough,                   !- Roughness
    292     1.2700000E-02,           !- Thickness {m}
    293     1.442000,                !- Conductivity {W/m-K}
    294     881.0000,                !- Density {kg/m3}
    295     1674.000,                !- Specific Heat {J/kg-K}
    296     0.9000000,               !- Thermal Absorptance
    297     0.6500000,               !- Solar Absorptance
    298     0.6500000;               !- Visible Absorptance
    299 
    300   Material,
    301     BR01,                    !- Name
    302     VeryRough,               !- Roughness
    303     9.4999997E-03,           !- Thickness {m}
    304     0.1620000,               !- Conductivity {W/m-K}
    305     1121.000,                !- Density {kg/m3}
    306     1464.000,                !- Specific Heat {J/kg-K}
    307     0.9000000,               !- Thermal Absorptance
    308     0.7000000,               !- Solar Absorptance
    309     0.7000000;               !- Visible Absorptance
    310 
    311   Material,
    312     IN46,                    !- Name
    313     VeryRough,               !- Roughness
    314     7.6200001E-02,           !- Thickness {m}
    315     2.3000000E-02,           !- Conductivity {W/m-K}
    316     24.00000,                !- Density {kg/m3}
    317     1590.000,                !- Specific Heat {J/kg-K}
    318     0.9000000,               !- Thermal Absorptance
    319     0.5000000,               !- Solar Absorptance
    320     0.5000000;               !- Visible Absorptance
    321 
    322   Material,
    323     WD01,                    !- Name
    324     MediumSmooth,            !- Roughness
    325     1.9099999E-02,           !- Thickness {m}
    326     0.1150000,               !- Conductivity {W/m-K}
    327     513.0000,                !- Density {kg/m3}
    328     1381.000,                !- Specific Heat {J/kg-K}
    329     0.9000000,               !- Thermal Absorptance
    330     0.7800000,               !- Solar Absorptance
    331     0.7800000;               !- Visible Absorptance
    332 
    333   Material,
    334     PW03,                    !- Name
    335     MediumSmooth,            !- Roughness
    336     1.2700000E-02,           !- Thickness {m}
    337     0.1150000,               !- Conductivity {W/m-K}
    338     545.0000,                !- Density {kg/m3}
    339     1213.000,                !- Specific Heat {J/kg-K}
    340     0.9000000,               !- Thermal Absorptance
    341     0.7800000,               !- Solar Absorptance
    342     0.7800000;               !- Visible Absorptance
    343 
    344   Material,
    345     IN02,                    !- Name
    346     Rough,                   !- Roughness
    347     9.0099998E-02,           !- Thickness {m}
    348     4.3000001E-02,           !- Conductivity {W/m-K}
    349     10.00000,                !- Density {kg/m3}
    350     837.0000,                !- Specific Heat {J/kg-K}
    351     0.9000000,               !- Thermal Absorptance
    352     0.7500000,               !- Solar Absorptance
    353     0.7500000;               !- Visible Absorptance
    354 
    355   Material,
    356     GP01,                    !- Name
    357     MediumSmooth,            !- Roughness
    358     1.2700000E-02,           !- Thickness {m}
    359     0.1600000,               !- Conductivity {W/m-K}
    360     801.0000,                !- Density {kg/m3}
    361     837.0000,                !- Specific Heat {J/kg-K}
    362     0.9000000,               !- Thermal Absorptance
    363     0.7500000,               !- Solar Absorptance
    364     0.7500000;               !- Visible Absorptance
    365 
    366   Material,
    367     GP02,                    !- Name
    368     MediumSmooth,            !- Roughness
    369     1.5900001E-02,           !- Thickness {m}
    370     0.1600000,               !- Conductivity {W/m-K}
    371     801.0000,                !- Density {kg/m3}
    372     837.0000,                !- Specific Heat {J/kg-K}
    373     0.9000000,               !- Thermal Absorptance
    374     0.7500000,               !- Solar Absorptance
    375     0.7500000;               !- Visible Absorptance
    376 
    377   Material,
    378     CC03,                    !- Name
    379     MediumRough,             !- Roughness
    380     0.1016000,               !- Thickness {m}
    381     1.310000,                !- Conductivity {W/m-K}
    382     2243.000,                !- Density {kg/m3}
    383     837.0000,                !- Specific Heat {J/kg-K}
    384     0.9000000,               !- Thermal Absorptance
    385     0.6500000,               !- Solar Absorptance
    386     0.6500000;               !- Visible Absorptance
    387 
    388   Material:NoMass,
    389     CP01,                    !- Name
    390     Rough,                   !- Roughness
    391     0.3670000,               !- Thermal Resistance {m2-K/W}
    392     0.9000000,               !- Thermal Absorptance
    393     0.7500000,               !- Solar Absorptance
    394     0.7500000;               !- Visible Absorptance
    395 
    396   Material:NoMass,
    397     MAT-SB-U,                !- Name
    398     Rough,                   !- Roughness
    399     0.117406666,             !- Thermal Resistance {m2-K/W}
    400     0.65,                    !- Thermal Absorptance
    401     0.65,                    !- Solar Absorptance
    402     0.65;                    !- Visible Absorptance
    403 
    404   Material:NoMass,
    405     MAT-CLNG-1,              !- Name
    406     Rough,                   !- Roughness
    407     0.652259290,             !- Thermal Resistance {m2-K/W}
    408     0.65,                    !- Thermal Absorptance
    409     0.65,                    !- Solar Absorptance
    410     0.65;                    !- Visible Absorptance
    411 
    412   Material:NoMass,
    413     MAT-FLOOR-1,             !- Name
    414     Rough,                   !- Roughness
    415     3.522199631,             !- Thermal Resistance {m2-K/W}
    416     0.65,                    !- Thermal Absorptance
    417     0.65,                    !- Solar Absorptance
    418     0.65;                    !- Visible Absorptance
    419 
    420   Material:AirGap,
    421     AL21,                    !- Name
    422     0.1570000;               !- Thermal Resistance {m2-K/W}
    423 
    424   Material:AirGap,
    425     AL23,                    !- Name
    426     0.1530000;               !- Thermal Resistance {m2-K/W}
    427 
    428   Construction,
    429     ROOF-1,                  !- Name
    430     RG01,                    !- Outside Layer
    431     BR01,                    !- Layer 2
    432     IN46,                    !- Layer 3
    433     WD01;                    !- Layer 4
    434 
    435   Construction,
    436     WALL-1,                  !- Name
    437     WD01,                    !- Outside Layer
    438     PW03,                    !- Layer 2
    439     IN02,                    !- Layer 3
    440     GP01;                    !- Layer 4
    441 
    442   Construction,
    443     CLNG-1,                  !- Name
    444     MAT-CLNG-1;              !- Outside Layer
    445 
    446   Construction,
    447     SB-U,                    !- Name
    448     MAT-SB-U;                !- Outside Layer
    449 
    450   Construction,
    451     FLOOR-1,                 !- Name
    452     MAT-FLOOR-1;             !- Outside Layer
    453 
    454   Construction,
    455     FLOOR-SLAB-1,            !- Name
    456     CC03;                    !- Outside Layer
    457 
    458   Construction,
    459     INT-WALL-1,              !- Name
    460     GP02,                    !- Outside Layer
    461     AL21,                    !- Layer 2
    462     GP02;                    !- Layer 3
    463 
    464   WindowMaterial:Gas,
    465     AIR 6MM,                 !- Name
    466     Air,                     !- Gas Type
    467     0.0063;                  !- Thickness {m}
    468 
    469   WindowMaterial:Gas,
    470     AIR 13MM,                !- Name
    471     Air,                     !- Gas Type
    472     0.0127;                  !- Thickness {m}
    473 
    474   WindowMaterial:Gas,
    475     ARGON 13MM,              !- Name
    476     Argon,                   !- Gas Type
    477     0.0127;                  !- Thickness {m}
    478 
    479   WindowMaterial:Glazing,
    480     CLEAR 3MM,               !- Name
    481     SpectralAverage,         !- Optical Data Type
    482     ,                        !- Window Glass Spectral Data Set Name
    483     0.003,                   !- Thickness {m}
    484     0.837,                   !- Solar Transmittance at Normal Incidence
    485     0.075,                   !- Front Side Solar Reflectance at Normal Incidence
    486     0.075,                   !- Back Side Solar Reflectance at Normal Incidence
    487     0.898,                   !- Visible Transmittance at Normal Incidence
    488     0.081,                   !- Front Side Visible Reflectance at Normal Incidence
    489     0.081,                   !- Back Side Visible Reflectance at Normal Incidence
    490     0.0,                     !- Infrared Transmittance at Normal Incidence
    491     0.84,                    !- Front Side Infrared Hemispherical Emissivity
    492     0.84,                    !- Back Side Infrared Hemispherical Emissivity
    493     0.9;                     !- Conductivity {W/m-K}
    494 
    495   WindowMaterial:Glazing,
    496     GREY 3MM,                !- Name
    497     SpectralAverage,         !- Optical Data Type
    498     ,                        !- Window Glass Spectral Data Set Name
    499     0.003,                   !- Thickness {m}
    500     0.626,                   !- Solar Transmittance at Normal Incidence
    501     0.061,                   !- Front Side Solar Reflectance at Normal Incidence
    502     0.061,                   !- Back Side Solar Reflectance at Normal Incidence
    503     0.611,                   !- Visible Transmittance at Normal Incidence
    504     0.061,                   !- Front Side Visible Reflectance at Normal Incidence
    505     0.061,                   !- Back Side Visible Reflectance at Normal Incidence
    506     0.0,                     !- Infrared Transmittance at Normal Incidence
    507     0.84,                    !- Front Side Infrared Hemispherical Emissivity
    508     0.84,                    !- Back Side Infrared Hemispherical Emissivity
    509     0.9;                     !- Conductivity {W/m-K}
    510 
    511   WindowMaterial:Glazing,
    512     CLEAR 6MM,               !- Name
    513     SpectralAverage,         !- Optical Data Type
    514     ,                        !- Window Glass Spectral Data Set Name
    515     0.006,                   !- Thickness {m}
    516     0.775,                   !- Solar Transmittance at Normal Incidence
    517     0.071,                   !- Front Side Solar Reflectance at Normal Incidence
    518     0.071,                   !- Back Side Solar Reflectance at Normal Incidence
    519     0.881,                   !- Visible Transmittance at Normal Incidence
    520     0.080,                   !- Front Side Visible Reflectance at Normal Incidence
    521     0.080,                   !- Back Side Visible Reflectance at Normal Incidence
    522     0.0,                     !- Infrared Transmittance at Normal Incidence
    523     0.84,                    !- Front Side Infrared Hemispherical Emissivity
    524     0.84,                    !- Back Side Infrared Hemispherical Emissivity
    525     0.9;                     !- Conductivity {W/m-K}
    526 
    527   WindowMaterial:Glazing,
    528     LoE CLEAR 6MM,           !- Name
    529     SpectralAverage,         !- Optical Data Type
    530     ,                        !- Window Glass Spectral Data Set Name
    531     0.006,                   !- Thickness {m}
    532     0.600,                   !- Solar Transmittance at Normal Incidence
    533     0.170,                   !- Front Side Solar Reflectance at Normal Incidence
    534     0.220,                   !- Back Side Solar Reflectance at Normal Incidence
    535     0.840,                   !- Visible Transmittance at Normal Incidence
    536     0.055,                   !- Front Side Visible Reflectance at Normal Incidence
    537     0.078,                   !- Back Side Visible Reflectance at Normal Incidence
    538     0.0,                     !- Infrared Transmittance at Normal Incidence
    539     0.84,                    !- Front Side Infrared Hemispherical Emissivity
    540     0.10,                    !- Back Side Infrared Hemispherical Emissivity
    541     0.9;                     !- Conductivity {W/m-K}
    542 
    543   Construction,
    544     Dbl Clr 3mm/13mm Air,    !- Name
    545     CLEAR 3MM,               !- Outside Layer
    546     AIR 13MM,                !- Layer 2
    547     CLEAR 3MM;               !- Layer 3
    548 
    549   Construction,
    550     Dbl Clr 3mm/13mm Arg,    !- Name
    551     CLEAR 3MM,               !- Outside Layer
    552     ARGON 13MM,              !- Layer 2
    553     CLEAR 3MM;               !- Layer 3
    554 
    555   Construction,
    556     Sgl Grey 3mm,            !- Name
    557     GREY 3MM;                !- Outside Layer
    558 
    559   Construction,
    560     Dbl Clr 6mm/6mm Air,     !- Name
    561     CLEAR 6MM,               !- Outside Layer
    562     AIR 6MM,                 !- Layer 2
    563     CLEAR 6MM;               !- Layer 3
    564 
    565   Construction,
    566     Dbl LoE (e2=.1) Clr 6mm/6mm Air,  !- Name
    567     LoE CLEAR 6MM,           !- Outside Layer
    568     AIR 6MM,                 !- Layer 2
    569     CLEAR 6MM;               !- Layer 3
    570 
    571   Schedule:Compact,
    572     OCCUPY-1,                !- Name
    573     Fraction,                !- Schedule Type Limits Name
    574     Through: 12/31,          !- Field 1
    575     For: WeekDays SummerDesignDay CustomDay1 CustomDay2, !- Field 2
    576     Until: 8:00,0.0,         !- Field 3
    577     Until: 11:00,1.00,       !- Field 5
    578     Until: 12:00,0.80,       !- Field 7
    579     Until: 13:00,0.40,       !- Field 9
    580     Until: 14:00,0.80,       !- Field 11
    581     Until: 18:00,1.00,       !- Field 13
    582     Until: 19:00,0.50,       !- Field 15
    583     Until: 24:00,0.0,        !- Field 17
    584     For: Weekends WinterDesignDay Holiday, !- Field 19
    585     Until: 24:00,0.0;        !- Field 20
    586 
    587   Schedule:Compact,
    588     LIGHTS-1,                !- Name
    589     Fraction,                !- Schedule Type Limits Name
    590     Through: 12/31,          !- Field 1
    591     For: WeekDays SummerDesignDay CustomDay1 CustomDay2, !- Field 2
    592     Until: 8:00,0.05,        !- Field 3
    593     Until: 9:00,0.9,         !- Field 5
    594     Until: 10:00,0.95,       !- Field 7
    595     Until: 11:00,1.00,       !- Field 9
    596     Until: 12:00,0.95,       !- Field 11
    597     Until: 13:00,0.8,        !- Field 13
    598     Until: 14:00,0.9,        !- Field 15
    599     Until: 18:00,1.00,       !- Field 17
    600     Until: 19:00,0.60,       !- Field 19
    601     Until: 21:00,0.20,       !- Field 21
    602     Until: 24:00,0.05,       !- Field 23
    603     For: Weekends WinterDesignDay Holiday, !- Field 25
    604     Until: 24:00,0.05;       !- Field 26
    605 
    606   Schedule:Compact,
    607     EQUIP-1,                 !- Name
    608     Fraction,                !- Schedule Type Limits Name
    609     Through: 12/31,          !- Field 1
    610     For: WeekDays SummerDesignDay CustomDay1 CustomDay2, !- Field 2
    611     Until: 8:00,0.02,        !- Field 3
    612     Until: 9:00,0.4,         !- Field 5
    613     Until: 14:00,0.9,        !- Field 7
    614     Until: 15:00,0.8,        !- Field 9
    615     Until: 16:00,0.7,        !- Field 11
    616     Until: 18:00,0.5,        !- Field 13
    617     Until: 20:00,0.3,        !- Field 15
    618     Until: 24:00,0.02,       !- Field 17
    619     For: Weekends WinterDesignDay Holiday, !- Field 19
    620     Until: 24:00,0.2;        !- Field 20
    621 
    622   Schedule:Compact,
    623     INFIL-SCH,               !- Name
    624     Fraction,                !- Schedule Type Limits Name
    625     Through: 3/31,           !- Field 1
    626     For: AllDays,            !- Field 2
    627     Until: 24:00,1.0,        !- Field 3
    628     Through: 10/31,          !- Field 5
    629     For: AllDays,            !- Field 6
    630     Until: 24:00,0.0,        !- Field 7
    631     Through: 12/31,          !- Field 9
    632     For: AllDays,            !- Field 10
    633     Until: 24:00,1.0;        !- Field 11
    634 
    635   Schedule:Compact,
    636     ActSchd,                 !- Name
    637     Any Number,              !- Schedule Type Limits Name
    638     Through: 12/31,          !- Field 1
    639     For: AllDays,            !- Field 2
    640     Until: 24:00,117.239997864; !- Field 3
    641 
    642                              !- Field 4
    643 
    644   Schedule:Compact,
    645     ShadeTransSch,           !- Name
    646     Fraction,                !- Schedule Type Limits Name
    647     Through: 12/31,          !- Field 1
    648     For: AllDays,            !- Field 2
    649     Until: 24:00,0.0;        !- Field 3
    650 
    651   Zone,
    652     PLENUM-1,                !- Name
    653     0,                       !- Direction of Relative North {deg}
    654     0,                       !- X Origin {m}
    655     0,                       !- Y Origin {m}
    656     0,                       !- Z Origin {m}
    657     1,                       !- Type
    658     1,                       !- Multiplier
    659     0.609600067,             !- Ceiling Height {m}
    660     283.2;                   !- Volume {m3}
    661 
    662   BuildingSurface:Detailed,
    663     WALL-1PF,                !- Name
    664     WALL,                    !- Surface Type
    665     WALL-1,                  !- Construction Name
    666     PLENUM-1,                !- Zone Name
    667     Outdoors,                !- Outside Boundary Condition
    668     ,                        !- Outside Boundary Condition Object
    669     SunExposed,              !- Sun Exposure
    670     WindExposed,             !- Wind Exposure
    671     0.50000,                 !- View Factor to Ground
    672     4,                       !- Number of Vertices
    673     0.0,0.0,3.0,  !- X,Y,Z ==> Vertex 1 {m}
    674     0.0,0.0,2.4,  !- X,Y,Z ==> Vertex 2 {m}
    675     30.5,0.0,2.4,  !- X,Y,Z ==> Vertex 3 {m}
    676     30.5,0.0,3.0;  !- X,Y,Z ==> Vertex 4 {m}
    677 
    678   BuildingSurface:Detailed,
    679     WALL-1PR,                !- Name
    680     WALL,                    !- Surface Type
    681     WALL-1,                  !- Construction Name
    682     PLENUM-1,                !- Zone Name
    683     Outdoors,                !- Outside Boundary Condition
    684     ,                        !- Outside Boundary Condition Object
    685     SunExposed,              !- Sun Exposure
    686     WindExposed,             !- Wind Exposure
    687     0.50000,                 !- View Factor to Ground
    688     4,                       !- Number of Vertices
    689     30.5,0.0,3.0,  !- X,Y,Z ==> Vertex 1 {m}
    690     30.5,0.0,2.4,  !- X,Y,Z ==> Vertex 2 {m}
    691     30.5,15.2,2.4,  !- X,Y,Z ==> Vertex 3 {m}
    692     30.5,15.2,3.0;  !- X,Y,Z ==> Vertex 4 {m}
    693 
    694   BuildingSurface:Detailed,
    695     WALL-1PB,                !- Name
    696     WALL,                    !- Surface Type
    697     WALL-1,                  !- Construction Name
    698     PLENUM-1,                !- Zone Name
    699     Outdoors,                !- Outside Boundary Condition
    700     ,                        !- Outside Boundary Condition Object
    701     SunExposed,              !- Sun Exposure
    702     WindExposed,             !- Wind Exposure
    703     0.50000,                 !- View Factor to Ground
    704     4,                       !- Number of Vertices
    705     30.5,15.2,3.0,  !- X,Y,Z ==> Vertex 1 {m}
    706     30.5,15.2,2.4,  !- X,Y,Z ==> Vertex 2 {m}
    707     0.0,15.2,2.4,  !- X,Y,Z ==> Vertex 3 {m}
    708     0.0,15.2,3.0;  !- X,Y,Z ==> Vertex 4 {m}
    709 
    710   BuildingSurface:Detailed,
    711     WALL-1PL,                !- Name
    712     WALL,                    !- Surface Type
    713     WALL-1,                  !- Construction Name
    714     PLENUM-1,                !- Zone Name
    715     Outdoors,                !- Outside Boundary Condition
    716     ,                        !- Outside Boundary Condition Object
    717     SunExposed,              !- Sun Exposure
    718     WindExposed,             !- Wind Exposure
    719     0.50000,                 !- View Factor to Ground
    720     4,                       !- Number of Vertices
    721     0.0,15.2,3.0,  !- X,Y,Z ==> Vertex 1 {m}
    722     0.0,15.2,2.4,  !- X,Y,Z ==> Vertex 2 {m}
    723     0.0,0.0,2.4,  !- X,Y,Z ==> Vertex 3 {m}
    724     0.0,0.0,3.0;  !- X,Y,Z ==> Vertex 4 {m}
    725 
    726   BuildingSurface:Detailed,
    727     TOP-1,                   !- Name
    728     ROOF,                    !- Surface Type
    729     ROOF-1,                  !- Construction Name
    730     PLENUM-1,                !- Zone Name
    731     Outdoors,                !- Outside Boundary Condition
    732     ,                        !- Outside Boundary Condition Object
    733     SunExposed,              !- Sun Exposure
    734     WindExposed,             !- Wind Exposure
    735     0.00000,                 !- View Factor to Ground
    736     4,                       !- Number of Vertices
    737     0.0,15.2,3.0,  !- X,Y,Z ==> Vertex 1 {m}
    738     0.0,0.0,3.0,  !- X,Y,Z ==> Vertex 2 {m}
    739     30.5,0.0,3.0,  !- X,Y,Z ==> Vertex 3 {m}
    740     30.5,15.2,3.0;  !- X,Y,Z ==> Vertex 4 {m}
    741 
    742   BuildingSurface:Detailed,
    743     C1-1P,                   !- Name
    744     FLOOR,                   !- Surface Type
    745     CLNG-1,                  !- Construction Name
    746     PLENUM-1,                !- Zone Name
    747     Surface,                 !- Outside Boundary Condition
    748     C1-1,                    !- Outside Boundary Condition Object
    749     NoSun,                   !- Sun Exposure
    750     NoWind,                  !- Wind Exposure
    751     0.0,                     !- View Factor to Ground
    752     4,                       !- Number of Vertices
    753     26.8,3.7,2.4,  !- X,Y,Z ==> Vertex 1 {m}
    754     30.5,0.0,2.4,  !- X,Y,Z ==> Vertex 2 {m}
    755     0.0,0.0,2.4,  !- X,Y,Z ==> Vertex 3 {m}
    756     3.7,3.7,2.4;  !- X,Y,Z ==> Vertex 4 {m}
    757 
    758   BuildingSurface:Detailed,
    759     C2-1P,                   !- Name
    760     FLOOR,                   !- Surface Type
    761     CLNG-1,                  !- Construction Name
    762     PLENUM-1,                !- Zone Name
    763     Surface,                 !- Outside Boundary Condition
    764     C2-1,                    !- Outside Boundary Condition Object
    765     NoSun,                   !- Sun Exposure
    766     NoWind,                  !- Wind Exposure
    767     0.0,                     !- View Factor to Ground
    768     4,                       !- Number of Vertices
    769     26.8,11.6,2.4,  !- X,Y,Z ==> Vertex 1 {m}
    770     30.5,15.2,2.4,  !- X,Y,Z ==> Vertex 2 {m}
    771     30.5,0.0,2.4,  !- X,Y,Z ==> Vertex 3 {m}
    772     26.8,3.7,2.4;  !- X,Y,Z ==> Vertex 4 {m}
    773 
    774   BuildingSurface:Detailed,
    775     C3-1P,                   !- Name
    776     FLOOR,                   !- Surface Type
    777     CLNG-1,                  !- Construction Name
    778     PLENUM-1,                !- Zone Name
    779     Surface,                 !- Outside Boundary Condition
    780     C3-1,                    !- Outside Boundary Condition Object
    781     NoSun,                   !- Sun Exposure
    782     NoWind,                  !- Wind Exposure
    783     0.0,                     !- View Factor to Ground
    784     4,                       !- Number of Vertices
    785     26.8,11.6,2.4,  !- X,Y,Z ==> Vertex 1 {m}
    786     3.7,11.6,2.4,  !- X,Y,Z ==> Vertex 2 {m}
    787     0.0,15.2,2.4,  !- X,Y,Z ==> Vertex 3 {m}
    788     30.5,15.2,2.4;  !- X,Y,Z ==> Vertex 4 {m}
    789 
    790   BuildingSurface:Detailed,
    791     C4-1P,                   !- Name
    792     FLOOR,                   !- Surface Type
    793     CLNG-1,                  !- Construction Name
    794     PLENUM-1,                !- Zone Name
    795     Surface,                 !- Outside Boundary Condition
    796     C4-1,                    !- Outside Boundary Condition Object
    797     NoSun,                   !- Sun Exposure
    798     NoWind,                  !- Wind Exposure
    799     0.0,                     !- View Factor to Ground
    800     4,                       !- Number of Vertices
    801     3.7,3.7,2.4,  !- X,Y,Z ==> Vertex 1 {m}
    802     0.0,0.0,2.4,  !- X,Y,Z ==> Vertex 2 {m}
    803     0.0,15.2,2.4,  !- X,Y,Z ==> Vertex 3 {m}
    804     3.7,11.6,2.4;  !- X,Y,Z ==> Vertex 4 {m}
    805 
    806   BuildingSurface:Detailed,
    807     C5-1P,                   !- Name
    808     FLOOR,                   !- Surface Type
    809     CLNG-1,                  !- Construction Name
    810     PLENUM-1,                !- Zone Name
    811     Surface,                 !- Outside Boundary Condition
    812     C5-1,                    !- Outside Boundary Condition Object
    813     NoSun,                   !- Sun Exposure
    814     NoWind,                  !- Wind Exposure
    815     0.0,                     !- View Factor to Ground
    816     4,                       !- Number of Vertices
    817     26.8,11.6,2.4,  !- X,Y,Z ==> Vertex 1 {m}
    818     26.8,3.7,2.4,  !- X,Y,Z ==> Vertex 2 {m}
    819     3.7,3.7,2.4,  !- X,Y,Z ==> Vertex 3 {m}
    820     3.7,11.6,2.4;  !- X,Y,Z ==> Vertex 4 {m}
    821 
    822   Zone,
    823     SPACE1-1,                !- Name
    824     0,                       !- Direction of Relative North {deg}
    825     0,                       !- X Origin {m}
    826     0,                       !- Y Origin {m}
    827     0,                       !- Z Origin {m}
    828     1,                       !- Type
    829     1,                       !- Multiplier
    830     2.438400269,             !- Ceiling Height {m}
    831     239.247360229;           !- Volume {m3}
    832 
    833   ZoneInfiltration:DesignFlowRate,
    834     SPACE1-1 Infil 1,        !- Name
    835     SPACE1-1,                !- Zone or ZoneList Name
    836     INFIL-SCH,               !- Schedule Name
    837     flow/zone,               !- Design Flow Rate Calculation Method
    838     0.032,                   !- Design Flow Rate {m3/s}
    839     ,                        !- Flow per Zone Floor Area {m3/s-m2}
    840     ,                        !- Flow per Exterior Surface Area {m3/s-m2}
    841     ,                        !- Air Changes per Hour {1/hr}
    842     0,                       !- Constant Term Coefficient
    843     0,                       !- Temperature Term Coefficient
    844     0.2237,                  !- Velocity Term Coefficient
    845     0;                       !- Velocity Squared Term Coefficient
    846 
    847   People,
    848     SPACE1-1 People 1,       !- Name
    849     SPACE1-1,                !- Zone or ZoneList Name
    850     OCCUPY-1,                !- Number of People Schedule Name
    851     people,                  !- Number of People Calculation Method
    852     11,                      !- Number of People
    853     ,                        !- People per Zone Floor Area {person/m2}
    854     ,                        !- Zone Floor Area per Person {m2/person}
    855     0.3,                     !- Fraction Radiant
    856     ,                        !- Sensible Heat Fraction
    857     ActSchd;                 !- Activity Level Schedule Name
    858 
    859   Lights,
    860     SPACE1-1 Lights 1,       !- Name
    861     SPACE1-1,                !- Zone or ZoneList Name
    862     LIGHTS-1,                !- Schedule Name
    863     LightingLevel,           !- Design Level Calculation Method
    864     1584,                    !- Lighting Level {W}
    865     ,                        !- Watts per Zone Floor Area {W/m2}
    866     ,                        !- Watts per Person {W/person}
    867     0.2,                     !- Return Air Fraction
    868     0.59,                    !- Fraction Radiant
    869     0.2,                     !- Fraction Visible
    870     0,                       !- Fraction Replaceable
    871     GeneralLights;           !- End-Use Subcategory
    872 
    873   ElectricEquipment,
    874     SPACE1-1 ElecEq 1,       !- Name
    875     SPACE1-1,                !- Zone or ZoneList Name
    876     EQUIP-1,                 !- Schedule Name
    877     EquipmentLevel,          !- Design Level Calculation Method
    878     1056,                    !- Design Level {W}
    879     ,                        !- Watts per Zone Floor Area {W/m2}
    880     ,                        !- Watts per Person {W/person}
    881     0,                       !- Fraction Latent
    882     0.3,                     !- Fraction Radiant
    883     0;                       !- Fraction Lost
    884 
    885   BuildingSurface:Detailed,
    886     FRONT-1,                 !- Name
    887     WALL,                    !- Surface Type
    888     WALL-1,                  !- Construction Name
    889     SPACE1-1,                !- Zone Name
    890     Outdoors,                !- Outside Boundary Condition
    891     ,                        !- Outside Boundary Condition Object
    892     SunExposed,              !- Sun Exposure
    893     WindExposed,             !- Wind Exposure
    894     0.50000,                 !- View Factor to Ground
    895     4,                       !- Number of Vertices
    896     0.0,0.0,2.4,  !- X,Y,Z ==> Vertex 1 {m}
    897     0.0,0.0,0.0,  !- X,Y,Z ==> Vertex 2 {m}
    898     30.5,0.0,0.0,  !- X,Y,Z ==> Vertex 3 {m}
    899     30.5,0.0,2.4;  !- X,Y,Z ==> Vertex 4 {m}
    900 
    901   FenestrationSurface:Detailed,
    902     WF-1,                    !- Name
    903     WINDOW,                  !- Surface Type
    904     Dbl Clr 3mm/13mm Air,    !- Construction Name
    905     FRONT-1,                 !- Building Surface Name
    906     ,                        !- Outside Boundary Condition Object
    907     0.50000,                 !- View Factor to Ground
    908     ,                        !- Shading Control Name
    909     ,                        !- Frame and Divider Name
    910     1,                       !- Multiplier
    911     4,                       !- Number of Vertices
    912     3.0,0.0,2.1,  !- X,Y,Z ==> Vertex 1 {m}
    913     3.0,0.0,0.9,  !- X,Y,Z ==> Vertex 2 {m}
    914     16.8,0.0,0.9,  !- X,Y,Z ==> Vertex 3 {m}
    915     16.8,0.0,2.1;  !- X,Y,Z ==> Vertex 4 {m}
    916 
    917   FenestrationSurface:Detailed,
    918     DF-1,                    !- Name
    919     GLASSDOOR,               !- Surface Type
    920     Sgl Grey 3mm,            !- Construction Name
    921     FRONT-1,                 !- Building Surface Name
    922     ,                        !- Outside Boundary Condition Object
    923     0.50000,                 !- View Factor to Ground
    924     ,                        !- Shading Control Name
    925     ,                        !- Frame and Divider Name
    926     1,                       !- Multiplier
    927     4,                       !- Number of Vertices
    928     21.3,0.0,2.1,  !- X,Y,Z ==> Vertex 1 {m}
    929     21.3,0.0,0.0,  !- X,Y,Z ==> Vertex 2 {m}
    930     23.8,0.0,0.0,  !- X,Y,Z ==> Vertex 3 {m}
    931     23.8,0.0,2.1;  !- X,Y,Z ==> Vertex 4 {m}
    932 
    933   Shading:Zone:Detailed,
    934     Main South Overhang,     !- Name
    935     FRONT-1,                 !- Base Surface Name
    936     ShadeTransSch,           !- Transmittance Schedule Name
    937     4,                       !- Number of Vertices
    938     0.0,-1.3,2.2,  !- X,Y,Z ==> Vertex 1 {m}
    939     0.0,0.0,2.2,  !- X,Y,Z ==> Vertex 2 {m}
    940     19.8,0.0,2.2,  !- X,Y,Z ==> Vertex 3 {m}
    941     19.8,-1.3,2.2;  !- X,Y,Z ==> Vertex 4 {m}
    942 
    943   Shading:Zone:Detailed,
    944     South Door Overhang,     !- Name
    945     FRONT-1,                 !- Base Surface Name
    946     ShadeTransSch,           !- Transmittance Schedule Name
    947     4,                       !- Number of Vertices
    948     21.0,-2.0,2.6,  !- X,Y,Z ==> Vertex 1 {m}
    949     21.0,0.0,2.6,  !- X,Y,Z ==> Vertex 2 {m}
    950     24.1,0.0,2.6,  !- X,Y,Z ==> Vertex 3 {m}
    951     24.1,-2.0,2.6;  !- X,Y,Z ==> Vertex 4 {m}
    952 
    953   BuildingSurface:Detailed,
    954     C1-1,                    !- Name
    955     CEILING,                 !- Surface Type
    956     CLNG-1,                  !- Construction Name
    957     SPACE1-1,                !- Zone Name
    958     Surface,                 !- Outside Boundary Condition
    959     C1-1P,                   !- Outside Boundary Condition Object
    960     NoSun,                   !- Sun Exposure
    961     NoWind,                  !- Wind Exposure
    962     0.0,                     !- View Factor to Ground
    963     4,                       !- Number of Vertices
    964     3.7,3.7,2.4,  !- X,Y,Z ==> Vertex 1 {m}
    965     0.0,0.0,2.4,  !- X,Y,Z ==> Vertex 2 {m}
    966     30.5,0.0,2.4,  !- X,Y,Z ==> Vertex 3 {m}
    967     26.8,3.7,2.4;  !- X,Y,Z ==> Vertex 4 {m}
    968 
    969   BuildingSurface:Detailed,
    970     F1-1,                    !- Name
    971     FLOOR,                   !- Surface Type
    972     FLOOR-SLAB-1,            !- Construction Name
    973     SPACE1-1,                !- Zone Name
    974     Ground,                  !- Outside Boundary Condition
    975     ,                        !- Outside Boundary Condition Object
    976     NoSun,                   !- Sun Exposure
    977     NoWind,                  !- Wind Exposure
    978     0.0,                     !- View Factor to Ground
    979     4,                       !- Number of Vertices
    980     26.8,3.7,0.0,  !- X,Y,Z ==> Vertex 1 {m}
    981     30.5,0.0,0.0,  !- X,Y,Z ==> Vertex 2 {m}
    982     0.0,0.0,0.0,  !- X,Y,Z ==> Vertex 3 {m}
    983     3.7,3.7,0.0;  !- X,Y,Z ==> Vertex 4 {m}
    984 
    985   BuildingSurface:Detailed,
    986     SB12,                    !- Name
    987     WALL,                    !- Surface Type
    988     INT-WALL-1,              !- Construction Name
    989     SPACE1-1,                !- Zone Name
    990     Surface,                 !- Outside Boundary Condition
    991     SB21,                    !- Outside Boundary Condition Object
    992     NoSun,                   !- Sun Exposure
    993     NoWind,                  !- Wind Exposure
    994     0.0,                     !- View Factor to Ground
    995     4,                       !- Number of Vertices
    996     30.5,0.0,2.4,  !- X,Y,Z ==> Vertex 1 {m}
    997     30.5,0.0,0.0,  !- X,Y,Z ==> Vertex 2 {m}
    998     26.8,3.7,0.0,  !- X,Y,Z ==> Vertex 3 {m}
    999     26.8,3.7,2.4;  !- X,Y,Z ==> Vertex 4 {m}
   1000 
   1001   BuildingSurface:Detailed,
   1002     SB14,                    !- Name
   1003     WALL,                    !- Surface Type
   1004     INT-WALL-1,              !- Construction Name
   1005     SPACE1-1,                !- Zone Name
   1006     Surface,                 !- Outside Boundary Condition
   1007     SB41,                    !- Outside Boundary Condition Object
   1008     NoSun,                   !- Sun Exposure
   1009     NoWind,                  !- Wind Exposure
   1010     0.0,                     !- View Factor to Ground
   1011     4,                       !- Number of Vertices
   1012     3.7,3.7,2.4,  !- X,Y,Z ==> Vertex 1 {m}
   1013     3.7,3.7,0.0,  !- X,Y,Z ==> Vertex 2 {m}
   1014     0.0,0.0,0.0,  !- X,Y,Z ==> Vertex 3 {m}
   1015     0.0,0.0,2.4;  !- X,Y,Z ==> Vertex 4 {m}
   1016 
   1017   BuildingSurface:Detailed,
   1018     SB15,                    !- Name
   1019     WALL,                    !- Surface Type
   1020     INT-WALL-1,              !- Construction Name
   1021     SPACE1-1,                !- Zone Name
   1022     Surface,                 !- Outside Boundary Condition
   1023     SB51,                    !- Outside Boundary Condition Object
   1024     NoSun,                   !- Sun Exposure
   1025     NoWind,                  !- Wind Exposure
   1026     0.0,                     !- View Factor to Ground
   1027     4,                       !- Number of Vertices
   1028     26.8,3.7,2.4,  !- X,Y,Z ==> Vertex 1 {m}
   1029     26.8,3.7,0.0,  !- X,Y,Z ==> Vertex 2 {m}
   1030     3.7,3.7,0.0,  !- X,Y,Z ==> Vertex 3 {m}
   1031     3.7,3.7,2.4;  !- X,Y,Z ==> Vertex 4 {m}
   1032 
   1033   Zone,
   1034     SPACE2-1,                !- Name
   1035     0,                       !- Direction of Relative North {deg}
   1036     0,                       !- X Origin {m}
   1037     0,                       !- Y Origin {m}
   1038     0,                       !- Z Origin {m}
   1039     1,                       !- Type
   1040     1,                       !- Multiplier
   1041     2.438400269,             !- Ceiling Height {m}
   1042     103.311355591;           !- Volume {m3}
   1043 
   1044   ZoneInfiltration:DesignFlowRate,
   1045     SPACE2-1 Infil 1,        !- Name
   1046     SPACE2-1,                !- Zone or ZoneList Name
   1047     INFIL-SCH,               !- Schedule Name
   1048     flow/zone,               !- Design Flow Rate Calculation Method
   1049     0.014,                   !- Design Flow Rate {m3/s}
   1050     ,                        !- Flow per Zone Floor Area {m3/s-m2}
   1051     ,                        !- Flow per Exterior Surface Area {m3/s-m2}
   1052     ,                        !- Air Changes per Hour {1/hr}
   1053     0,                       !- Constant Term Coefficient
   1054     0,                       !- Temperature Term Coefficient
   1055     0.2237,                  !- Velocity Term Coefficient
   1056     0;                       !- Velocity Squared Term Coefficient
   1057 
   1058   People,
   1059     SPACE2-1 People 1,       !- Name
   1060     SPACE2-1,                !- Zone or ZoneList Name
   1061     OCCUPY-1,                !- Number of People Schedule Name
   1062     people,                  !- Number of People Calculation Method
   1063     5,                       !- Number of People
   1064     ,                        !- People per Zone Floor Area {person/m2}
   1065     ,                        !- Zone Floor Area per Person {m2/person}
   1066     0.3,                     !- Fraction Radiant
   1067     ,                        !- Sensible Heat Fraction
   1068     ActSchd;                 !- Activity Level Schedule Name
   1069 
   1070   Lights,
   1071     SPACE2-1 Lights 1,       !- Name
   1072     SPACE2-1,                !- Zone or ZoneList Name
   1073     LIGHTS-1,                !- Schedule Name
   1074     LightingLevel,           !- Design Level Calculation Method
   1075     684,                     !- Lighting Level {W}
   1076     ,                        !- Watts per Zone Floor Area {W/m2}
   1077     ,                        !- Watts per Person {W/person}
   1078     0.2,                     !- Return Air Fraction
   1079     0.59,                    !- Fraction Radiant
   1080     0.2,                     !- Fraction Visible
   1081     0,                       !- Fraction Replaceable
   1082     GeneralLights;           !- End-Use Subcategory
   1083 
   1084   ElectricEquipment,
   1085     SPACE2-1 ElecEq 1,       !- Name
   1086     SPACE2-1,                !- Zone or ZoneList Name
   1087     EQUIP-1,                 !- Schedule Name
   1088     EquipmentLevel,          !- Design Level Calculation Method
   1089     456,                     !- Design Level {W}
   1090     ,                        !- Watts per Zone Floor Area {W/m2}
   1091     ,                        !- Watts per Person {W/person}
   1092     0,                       !- Fraction Latent
   1093     0.3,                     !- Fraction Radiant
   1094     0;                       !- Fraction Lost
   1095 
   1096   BuildingSurface:Detailed,
   1097     RIGHT-1,                 !- Name
   1098     WALL,                    !- Surface Type
   1099     WALL-1,                  !- Construction Name
   1100     SPACE2-1,                !- Zone Name
   1101     Outdoors,                !- Outside Boundary Condition
   1102     ,                        !- Outside Boundary Condition Object
   1103     SunExposed,              !- Sun Exposure
   1104     WindExposed,             !- Wind Exposure
   1105     0.50000,                 !- View Factor to Ground
   1106     4,                       !- Number of Vertices
   1107     30.5,0.0,2.4,  !- X,Y,Z ==> Vertex 1 {m}
   1108     30.5,0.0,0.0,  !- X,Y,Z ==> Vertex 2 {m}
   1109     30.5,15.2,0.0,  !- X,Y,Z ==> Vertex 3 {m}
   1110     30.5,15.2,2.4;  !- X,Y,Z ==> Vertex 4 {m}
   1111 
   1112   FenestrationSurface:Detailed,
   1113     WR-1,                    !- Name
   1114     WINDOW,                  !- Surface Type
   1115     Dbl Clr 3mm/13mm Air,    !- Construction Name
   1116     RIGHT-1,                 !- Building Surface Name
   1117     ,                        !- Outside Boundary Condition Object
   1118     0.50000,                 !- View Factor to Ground
   1119     ,                        !- Shading Control Name
   1120     ,                        !- Frame and Divider Name
   1121     1,                       !- Multiplier
   1122     4,                       !- Number of Vertices
   1123     30.5,3.8,2.1,  !- X,Y,Z ==> Vertex 1 {m}
   1124     30.5,3.8,0.9,  !- X,Y,Z ==> Vertex 2 {m}
   1125     30.5,11.4,0.9,  !- X,Y,Z ==> Vertex 3 {m}
   1126     30.5,11.4,2.1;  !- X,Y,Z ==> Vertex 4 {m}
   1127 
   1128   BuildingSurface:Detailed,
   1129     C2-1,                    !- Name
   1130     CEILING,                 !- Surface Type
   1131     CLNG-1,                  !- Construction Name
   1132     SPACE2-1,                !- Zone Name
   1133     Surface,                 !- Outside Boundary Condition
   1134     C2-1P,                   !- Outside Boundary Condition Object
   1135     NoSun,                   !- Sun Exposure
   1136     NoWind,                  !- Wind Exposure
   1137     0.0,                     !- View Factor to Ground
   1138     4,                       !- Number of Vertices
   1139     26.8,3.7,2.4,  !- X,Y,Z ==> Vertex 1 {m}
   1140     30.5,0.0,2.4,  !- X,Y,Z ==> Vertex 2 {m}
   1141     30.5,15.2,2.4,  !- X,Y,Z ==> Vertex 3 {m}
   1142     26.8,11.6,2.4;  !- X,Y,Z ==> Vertex 4 {m}
   1143 
   1144   BuildingSurface:Detailed,
   1145     F2-1,                    !- Name
   1146     FLOOR,                   !- Surface Type
   1147     FLOOR-SLAB-1,            !- Construction Name
   1148     SPACE2-1,                !- Zone Name
   1149     Ground,                  !- Outside Boundary Condition
   1150     ,                        !- Outside Boundary Condition Object
   1151     NoSun,                   !- Sun Exposure
   1152     NoWind,                  !- Wind Exposure
   1153     0.0,                     !- View Factor to Ground
   1154     4,                       !- Number of Vertices
   1155     26.8,11.6,0.0,  !- X,Y,Z ==> Vertex 1 {m}
   1156     30.5,15.2,0.0,  !- X,Y,Z ==> Vertex 2 {m}
   1157     30.5,0.0,0.0,  !- X,Y,Z ==> Vertex 3 {m}
   1158     26.8,3.7,0.0;  !- X,Y,Z ==> Vertex 4 {m}
   1159 
   1160   BuildingSurface:Detailed,
   1161     SB21,                    !- Name
   1162     WALL,                    !- Surface Type
   1163     INT-WALL-1,              !- Construction Name
   1164     SPACE2-1,                !- Zone Name
   1165     Surface,                 !- Outside Boundary Condition
   1166     SB12,                    !- Outside Boundary Condition Object
   1167     NoSun,                   !- Sun Exposure
   1168     NoWind,                  !- Wind Exposure
   1169     0.0,                     !- View Factor to Ground
   1170     4,                       !- Number of Vertices
   1171     26.8,3.7,2.4,  !- X,Y,Z ==> Vertex 1 {m}
   1172     26.8,3.7,0.0,  !- X,Y,Z ==> Vertex 2 {m}
   1173     30.5,0.0,0.0,  !- X,Y,Z ==> Vertex 3 {m}
   1174     30.5,0.0,2.4;  !- X,Y,Z ==> Vertex 4 {m}
   1175 
   1176   BuildingSurface:Detailed,
   1177     SB23,                    !- Name
   1178     WALL,                    !- Surface Type
   1179     INT-WALL-1,              !- Construction Name
   1180     SPACE2-1,                !- Zone Name
   1181     Surface,                 !- Outside Boundary Condition
   1182     SB32,                    !- Outside Boundary Condition Object
   1183     NoSun,                   !- Sun Exposure
   1184     NoWind,                  !- Wind Exposure
   1185     0.0,                     !- View Factor to Ground
   1186     4,                       !- Number of Vertices
   1187     30.5,15.2,2.4,  !- X,Y,Z ==> Vertex 1 {m}
   1188     30.5,15.2,0.0,  !- X,Y,Z ==> Vertex 2 {m}
   1189     26.8,11.6,0.0,  !- X,Y,Z ==> Vertex 3 {m}
   1190     26.8,11.6,2.4;  !- X,Y,Z ==> Vertex 4 {m}
   1191 
   1192   BuildingSurface:Detailed,
   1193     SB25,                    !- Name
   1194     WALL,                    !- Surface Type
   1195     INT-WALL-1,              !- Construction Name
   1196     SPACE2-1,                !- Zone Name
   1197     Surface,                 !- Outside Boundary Condition
   1198     SB52,                    !- Outside Boundary Condition Object
   1199     NoSun,                   !- Sun Exposure
   1200     NoWind,                  !- Wind Exposure
   1201     0.0,                     !- View Factor to Ground
   1202     4,                       !- Number of Vertices
   1203     26.8,11.6,2.4,  !- X,Y,Z ==> Vertex 1 {m}
   1204     26.8,11.6,0.0,  !- X,Y,Z ==> Vertex 2 {m}
   1205     26.8,3.7,0.0,  !- X,Y,Z ==> Vertex 3 {m}
   1206     26.8,3.7,2.4;  !- X,Y,Z ==> Vertex 4 {m}
   1207 
   1208   Zone,
   1209     SPACE3-1,                !- Name
   1210     0,                       !- Direction of Relative North {deg}
   1211     0,                       !- X Origin {m}
   1212     0,                       !- Y Origin {m}
   1213     0,                       !- Z Origin {m}
   1214     1,                       !- Type
   1215     1,                       !- Multiplier
   1216     2.438400269,             !- Ceiling Height {m}
   1217     239.247360229;           !- Volume {m3}
   1218 
   1219   ZoneInfiltration:DesignFlowRate,
   1220     SPACE3-1 Infil 1,        !- Name
   1221     SPACE3-1,                !- Zone or ZoneList Name
   1222     INFIL-SCH,               !- Schedule Name
   1223     flow/zone,               !- Design Flow Rate Calculation Method
   1224     0.032,                   !- Design Flow Rate {m3/s}
   1225     ,                        !- Flow per Zone Floor Area {m3/s-m2}
   1226     ,                        !- Flow per Exterior Surface Area {m3/s-m2}
   1227     ,                        !- Air Changes per Hour {1/hr}
   1228     0,                       !- Constant Term Coefficient
   1229     0,                       !- Temperature Term Coefficient
   1230     0.2237,                  !- Velocity Term Coefficient
   1231     0;                       !- Velocity Squared Term Coefficient
   1232 
   1233   People,
   1234     SPACE3-1 People 1,       !- Name
   1235     SPACE3-1,                !- Zone or ZoneList Name
   1236     OCCUPY-1,                !- Number of People Schedule Name
   1237     people,                  !- Number of People Calculation Method
   1238     11,                      !- Number of People
   1239     ,                        !- People per Zone Floor Area {person/m2}
   1240     ,                        !- Zone Floor Area per Person {m2/person}
   1241     0.3,                     !- Fraction Radiant
   1242     ,                        !- Sensible Heat Fraction
   1243     ActSchd;                 !- Activity Level Schedule Name
   1244 
   1245   Lights,
   1246     SPACE3-1 Lights 1,       !- Name
   1247     SPACE3-1,                !- Zone or ZoneList Name
   1248     LIGHTS-1,                !- Schedule Name
   1249     LightingLevel,           !- Design Level Calculation Method
   1250     1584,                    !- Lighting Level {W}
   1251     ,                        !- Watts per Zone Floor Area {W/m2}
   1252     ,                        !- Watts per Person {W/person}
   1253     0.2,                     !- Return Air Fraction
   1254     0.59,                    !- Fraction Radiant
   1255     0.2,                     !- Fraction Visible
   1256     0,                       !- Fraction Replaceable
   1257     GeneralLights;           !- End-Use Subcategory
   1258 
   1259   ElectricEquipment,
   1260     SPACE3-1 ElecEq 1,       !- Name
   1261     SPACE3-1,                !- Zone or ZoneList Name
   1262     EQUIP-1,                 !- Schedule Name
   1263     EquipmentLevel,          !- Design Level Calculation Method
   1264     1056,                    !- Design Level {W}
   1265     ,                        !- Watts per Zone Floor Area {W/m2}
   1266     ,                        !- Watts per Person {W/person}
   1267     0,                       !- Fraction Latent
   1268     0.3,                     !- Fraction Radiant
   1269     0;                       !- Fraction Lost
   1270 
   1271   BuildingSurface:Detailed,
   1272     BACK-1,                  !- Name
   1273     WALL,                    !- Surface Type
   1274     WALL-1,                  !- Construction Name
   1275     SPACE3-1,                !- Zone Name
   1276     Outdoors,                !- Outside Boundary Condition
   1277     ,                        !- Outside Boundary Condition Object
   1278     SunExposed,              !- Sun Exposure
   1279     WindExposed,             !- Wind Exposure
   1280     0.50000,                 !- View Factor to Ground
   1281     4,                       !- Number of Vertices
   1282     30.5,15.2,2.4,  !- X,Y,Z ==> Vertex 1 {m}
   1283     30.5,15.2,0.0,  !- X,Y,Z ==> Vertex 2 {m}
   1284     0.0,15.2,0.0,  !- X,Y,Z ==> Vertex 3 {m}
   1285     0.0,15.2,2.4;  !- X,Y,Z ==> Vertex 4 {m}
   1286 
   1287   FenestrationSurface:Detailed,
   1288     WB-1,                    !- Name
   1289     WINDOW,                  !- Surface Type
   1290     Dbl Clr 3mm/13mm Air,    !- Construction Name
   1291     BACK-1,                  !- Building Surface Name
   1292     ,                        !- Outside Boundary Condition Object
   1293     0.50000,                 !- View Factor to Ground
   1294     ,                        !- Shading Control Name
   1295     ,                        !- Frame and Divider Name
   1296     1,                       !- Multiplier
   1297     4,                       !- Number of Vertices
   1298     27.4,15.2,2.1,  !- X,Y,Z ==> Vertex 1 {m}
   1299     27.4,15.2,0.9,  !- X,Y,Z ==> Vertex 2 {m}
   1300     13.7,15.2,0.9,  !- X,Y,Z ==> Vertex 3 {m}
   1301     13.7,15.2,2.1;  !- X,Y,Z ==> Vertex 4 {m}
   1302 
   1303   FenestrationSurface:Detailed,
   1304     DB-1,                    !- Name
   1305     GLASSDOOR,               !- Surface Type
   1306     Sgl Grey 3mm,            !- Construction Name
   1307     BACK-1,                  !- Building Surface Name
   1308     ,                        !- Outside Boundary Condition Object
   1309     0.50000,                 !- View Factor to Ground
   1310     ,                        !- Shading Control Name
   1311     ,                        !- Frame and Divider Name
   1312     1,                       !- Multiplier
   1313     4,                       !- Number of Vertices
   1314     9.1,15.2,2.1,  !- X,Y,Z ==> Vertex 1 {m}
   1315     9.1,15.2,0.0,  !- X,Y,Z ==> Vertex 2 {m}
   1316     7.0,15.2,0.0,  !- X,Y,Z ==> Vertex 3 {m}
   1317     7.0,15.2,2.1;  !- X,Y,Z ==> Vertex 4 {m}
   1318 
   1319   BuildingSurface:Detailed,
   1320     C3-1,                    !- Name
   1321     CEILING,                 !- Surface Type
   1322     CLNG-1,                  !- Construction Name
   1323     SPACE3-1,                !- Zone Name
   1324     Surface,                 !- Outside Boundary Condition
   1325     C3-1P,                   !- Outside Boundary Condition Object
   1326     NoSun,                   !- Sun Exposure
   1327     NoWind,                  !- Wind Exposure
   1328     0.0,                     !- View Factor to Ground
   1329     4,                       !- Number of Vertices
   1330     30.5,15.2,2.4,  !- X,Y,Z ==> Vertex 1 {m}
   1331     0.0,15.2,2.4,  !- X,Y,Z ==> Vertex 2 {m}
   1332     3.7,11.6,2.4,  !- X,Y,Z ==> Vertex 3 {m}
   1333     26.8,11.6,2.4;  !- X,Y,Z ==> Vertex 4 {m}
   1334 
   1335   BuildingSurface:Detailed,
   1336     F3-1,                    !- Name
   1337     FLOOR,                   !- Surface Type
   1338     FLOOR-SLAB-1,            !- Construction Name
   1339     SPACE3-1,                !- Zone Name
   1340     Ground,                  !- Outside Boundary Condition
   1341     ,                        !- Outside Boundary Condition Object
   1342     NoSun,                   !- Sun Exposure
   1343     NoWind,                  !- Wind Exposure
   1344     0.0,                     !- View Factor to Ground
   1345     4,                       !- Number of Vertices
   1346     26.8,11.6,0.0,  !- X,Y,Z ==> Vertex 1 {m}
   1347     3.7,11.6,0.0,  !- X,Y,Z ==> Vertex 2 {m}
   1348     0.0,15.2,0.0,  !- X,Y,Z ==> Vertex 3 {m}
   1349     30.5,15.2,0.0;  !- X,Y,Z ==> Vertex 4 {m}
   1350 
   1351   BuildingSurface:Detailed,
   1352     SB32,                    !- Name
   1353     WALL,                    !- Surface Type
   1354     INT-WALL-1,              !- Construction Name
   1355     SPACE3-1,                !- Zone Name
   1356     Surface,                 !- Outside Boundary Condition
   1357     SB23,                    !- Outside Boundary Condition Object
   1358     NoSun,                   !- Sun Exposure
   1359     NoWind,                  !- Wind Exposure
   1360     0.0,                     !- View Factor to Ground
   1361     4,                       !- Number of Vertices
   1362     26.8,11.6,2.4,  !- X,Y,Z ==> Vertex 1 {m}
   1363     26.8,11.6,0.0,  !- X,Y,Z ==> Vertex 2 {m}
   1364     30.5,15.2,0.0,  !- X,Y,Z ==> Vertex 3 {m}
   1365     30.5,15.2,2.4;  !- X,Y,Z ==> Vertex 4 {m}
   1366 
   1367   BuildingSurface:Detailed,
   1368     SB34,                    !- Name
   1369     WALL,                    !- Surface Type
   1370     INT-WALL-1,              !- Construction Name
   1371     SPACE3-1,                !- Zone Name
   1372     Surface,                 !- Outside Boundary Condition
   1373     SB43,                    !- Outside Boundary Condition Object
   1374     NoSun,                   !- Sun Exposure
   1375     NoWind,                  !- Wind Exposure
   1376     0.0,                     !- View Factor to Ground
   1377     4,                       !- Number of Vertices
   1378     0.0,15.2,2.4,  !- X,Y,Z ==> Vertex 1 {m}
   1379     0.0,15.2,0.0,  !- X,Y,Z ==> Vertex 2 {m}
   1380     3.7,11.6,0.0,  !- X,Y,Z ==> Vertex 3 {m}
   1381     3.7,11.6,2.4;  !- X,Y,Z ==> Vertex 4 {m}
   1382 
   1383   BuildingSurface:Detailed,
   1384     SB35,                    !- Name
   1385     WALL,                    !- Surface Type
   1386     INT-WALL-1,              !- Construction Name
   1387     SPACE3-1,                !- Zone Name
   1388     Surface,                 !- Outside Boundary Condition
   1389     SB53,                    !- Outside Boundary Condition Object
   1390     NoSun,                   !- Sun Exposure
   1391     NoWind,                  !- Wind Exposure
   1392     0.0,                     !- View Factor to Ground
   1393     4,                       !- Number of Vertices
   1394     3.7,11.6,2.4,  !- X,Y,Z ==> Vertex 1 {m}
   1395     3.7,11.6,0.0,  !- X,Y,Z ==> Vertex 2 {m}
   1396     26.8,11.6,0.0,  !- X,Y,Z ==> Vertex 3 {m}
   1397     26.8,11.6,2.4;  !- X,Y,Z ==> Vertex 4 {m}
   1398 
   1399   Zone,
   1400     SPACE4-1,                !- Name
   1401     0,                       !- Direction of Relative North {deg}
   1402     0,                       !- X Origin {m}
   1403     0,                       !- Y Origin {m}
   1404     0,                       !- Z Origin {m}
   1405     1,                       !- Type
   1406     1,                       !- Multiplier
   1407     2.438400269,             !- Ceiling Height {m}
   1408     103.311355591;           !- Volume {m3}
   1409 
   1410   ZoneInfiltration:DesignFlowRate,
   1411     SPACE4-1 Infil 1,        !- Name
   1412     SPACE4-1,                !- Zone or ZoneList Name
   1413     INFIL-SCH,               !- Schedule Name
   1414     flow/zone,               !- Design Flow Rate Calculation Method
   1415     0.014,                   !- Design Flow Rate {m3/s}
   1416     ,                        !- Flow per Zone Floor Area {m3/s-m2}
   1417     ,                        !- Flow per Exterior Surface Area {m3/s-m2}
   1418     ,                        !- Air Changes per Hour {1/hr}
   1419     0,                       !- Constant Term Coefficient
   1420     0,                       !- Temperature Term Coefficient
   1421     0.2237,                  !- Velocity Term Coefficient
   1422     0;                       !- Velocity Squared Term Coefficient
   1423 
   1424   People,
   1425     SPACE4-1 People 1,       !- Name
   1426     SPACE4-1,                !- Zone or ZoneList Name
   1427     OCCUPY-1,                !- Number of People Schedule Name
   1428     people,                  !- Number of People Calculation Method
   1429     5,                       !- Number of People
   1430     ,                        !- People per Zone Floor Area {person/m2}
   1431     ,                        !- Zone Floor Area per Person {m2/person}
   1432     0.3,                     !- Fraction Radiant
   1433     ,                        !- Sensible Heat Fraction
   1434     ActSchd;                 !- Activity Level Schedule Name
   1435 
   1436   Lights,
   1437     SPACE4-1 Lights 1,       !- Name
   1438     SPACE4-1,                !- Zone or ZoneList Name
   1439     LIGHTS-1,                !- Schedule Name
   1440     LightingLevel,           !- Design Level Calculation Method
   1441     684,                     !- Lighting Level {W}
   1442     ,                        !- Watts per Zone Floor Area {W/m2}
   1443     ,                        !- Watts per Person {W/person}
   1444     0.2,                     !- Return Air Fraction
   1445     0.59,                    !- Fraction Radiant
   1446     0.2,                     !- Fraction Visible
   1447     0,                       !- Fraction Replaceable
   1448     GeneralLights;           !- End-Use Subcategory
   1449 
   1450   ElectricEquipment,
   1451     SPACE4-1 ElecEq 1,       !- Name
   1452     SPACE4-1,                !- Zone or ZoneList Name
   1453     EQUIP-1,                 !- Schedule Name
   1454     EquipmentLevel,          !- Design Level Calculation Method
   1455     456,                     !- Design Level {W}
   1456     ,                        !- Watts per Zone Floor Area {W/m2}
   1457     ,                        !- Watts per Person {W/person}
   1458     0,                       !- Fraction Latent
   1459     0.3,                     !- Fraction Radiant
   1460     0;                       !- Fraction Lost
   1461 
   1462   BuildingSurface:Detailed,
   1463     LEFT-1,                  !- Name
   1464     WALL,                    !- Surface Type
   1465     WALL-1,                  !- Construction Name
   1466     SPACE4-1,                !- Zone Name
   1467     Outdoors,                !- Outside Boundary Condition
   1468     ,                        !- Outside Boundary Condition Object
   1469     SunExposed,              !- Sun Exposure
   1470     WindExposed,             !- Wind Exposure
   1471     0.50000,                 !- View Factor to Ground
   1472     4,                       !- Number of Vertices
   1473     0.0,15.2,2.4,  !- X,Y,Z ==> Vertex 1 {m}
   1474     0.0,15.2,0.0,  !- X,Y,Z ==> Vertex 2 {m}
   1475     0.0,0.0,0.0,  !- X,Y,Z ==> Vertex 3 {m}
   1476     0.0,0.0,2.4;  !- X,Y,Z ==> Vertex 4 {m}
   1477 
   1478   FenestrationSurface:Detailed,
   1479     WL-1,                    !- Name
   1480     WINDOW,                  !- Surface Type
   1481     Dbl Clr 3mm/13mm Air,    !- Construction Name
   1482     LEFT-1,                  !- Building Surface Name
   1483     ,                        !- Outside Boundary Condition Object
   1484     0.50000,                 !- View Factor to Ground
   1485     ,                        !- Shading Control Name
   1486     ,                        !- Frame and Divider Name
   1487     1,                       !- Multiplier
   1488     4,                       !- Number of Vertices
   1489     0.0,11.4,2.1,  !- X,Y,Z ==> Vertex 1 {m}
   1490     0.0,11.4,0.9,  !- X,Y,Z ==> Vertex 2 {m}
   1491     0.0,3.8,0.9,  !- X,Y,Z ==> Vertex 3 {m}
   1492     0.0,3.8,2.1;  !- X,Y,Z ==> Vertex 4 {m}
   1493 
   1494   BuildingSurface:Detailed,
   1495     C4-1,                    !- Name
   1496     CEILING,                 !- Surface Type
   1497     CLNG-1,                  !- Construction Name
   1498     SPACE4-1,                !- Zone Name
   1499     Surface,                 !- Outside Boundary Condition
   1500     C4-1P,                   !- Outside Boundary Condition Object
   1501     NoSun,                   !- Sun Exposure
   1502     NoWind,                  !- Wind Exposure
   1503     0.0,                     !- View Factor to Ground
   1504     4,                       !- Number of Vertices
   1505     3.7,11.6,2.4,  !- X,Y,Z ==> Vertex 1 {m}
   1506     0.0,15.2,2.4,  !- X,Y,Z ==> Vertex 2 {m}
   1507     0.0,0.0,2.4,  !- X,Y,Z ==> Vertex 3 {m}
   1508     3.7,3.7,2.4;  !- X,Y,Z ==> Vertex 4 {m}
   1509 
   1510   BuildingSurface:Detailed,
   1511     F4-1,                    !- Name
   1512     FLOOR,                   !- Surface Type
   1513     FLOOR-SLAB-1,            !- Construction Name
   1514     SPACE4-1,                !- Zone Name
   1515     Ground,                  !- Outside Boundary Condition
   1516     ,                        !- Outside Boundary Condition Object
[...]
   3179     CW Demand Inlet Node,    !- Component 1 Inlet Node Name
   3180     CW Demand Entrance Pipe Outlet Node,  !- Component 1 Outlet Node Name
   3181     PASSIVE;                 !- Component 1 Branch Control Type
   3182 
   3183   Pipe:Adiabatic,
   3184     Cooling Demand Side Inlet Pipe,  !- Name
   3185     CW Demand Inlet Node,    !- Inlet Node Name
   3186     CW Demand Entrance Pipe Outlet Node;  !- Outlet Node Name
   3187 
   3188   Branch,
   3189     Cooling Coil Branch,     !- Name
   3190     0,                       !- Maximum Flow Rate {m3/s}
   3191     ,                        !- Pressure Drop Curve Name
   3192     Coil:Cooling:Water,      !- Component 1 Object Type
   3193     Main Cooling Coil 1,     !- Component 1 Name
   3194     Main Cooling Coil 1 Water Inlet Node,  !- Component 1 Inlet Node Name
   3195     Main Cooling Coil 1 Water Outlet Node,  !- Component 1 Outlet Node Name
   3196     Active;                  !- Component 1 Branch Control Type
   3197 
   3198   Branch,
   3199     OA Cooling Coil Branch,  !- Name
   3200     0,                       !- Maximum Flow Rate {m3/s}
   3201     ,                        !- Pressure Drop Curve Name
   3202     Coil:Cooling:Water,      !- Component 1 Object Type
   3203     OA Cooling Coil 1,       !- Component 1 Name
   3204     OA Cooling Coil 1 Water Inlet Node,  !- Component 1 Inlet Node Name
   3205     OA Cooling Coil 1 Water Outlet Node,  !- Component 1 Outlet Node Name
   3206     Active;                  !- Component 1 Branch Control Type
   3207 
   3208   Branch,
   3209     Cooling Demand Bypass Branch,  !- Name
   3210     0,                       !- Maximum Flow Rate {m3/s}
   3211     ,                        !- Pressure Drop Curve Name
   3212     Pipe:Adiabatic,          !- Component 1 Object Type
   3213     Cooling Demand Side Bypass,  !- Component 1 Name
   3214     CW Demand Bypass Inlet Node,  !- Component 1 Inlet Node Name
   3215     CW Demand Bypass Outlet Node,  !- Component 1 Outlet Node Name
   3216     BYPASS;                  !- Component 1 Branch Control Type
   3217 
   3218   Pipe:Adiabatic,
   3219     Cooling Demand Side Bypass,  !- Name
   3220     CW Demand Bypass Inlet Node,  !- Inlet Node Name
   3221     CW Demand Bypass Outlet Node;  !- Outlet Node Name
   3222 
   3223   Branch,
   3224     Cooling Demand Outlet,   !- Name
   3225     0,                       !- Maximum Flow Rate {m3/s}
   3226     ,                        !- Pressure Drop Curve Name
   3227     Pipe:Adiabatic,          !- Component 1 Object Type
   3228     CW Demand Side Outlet Pipe,  !- Component 1 Name
   3229     CW Demand Exit Pipe Inlet Node,  !- Component 1 Inlet Node Name
   3230     CW Demand Outlet Node,   !- Component 1 Outlet Node Name
   3231     PASSIVE;                 !- Component 1 Branch Control Type
   3232 
   3233   Pipe:Adiabatic,
   3234     CW Demand Side Outlet Pipe,  !- Name
   3235     CW Demand Exit Pipe Inlet Node,  !- Inlet Node Name
   3236     CW Demand Outlet Node;   !- Outlet Node Name
   3237 
   3238   Branch,
   3239     Cooling Supply Outlet,   !- Name
   3240     0,                       !- Maximum Flow Rate {m3/s}
   3241     ,                        !- Pressure Drop Curve Name
   3242     Pipe:Adiabatic,          !- Component 1 Object Type
   3243     Supply Side Outlet Pipe, !- Component 1 Name
   3244     Supply Side Exit Pipe Inlet Node,  !- Component 1 Inlet Node Name
   3245     CW Supply Outlet Node,   !- Component 1 Outlet Node Name
   3246     PASSIVE;                 !- Component 1 Branch Control Type
   3247 
   3248   Pipe:Adiabatic,
   3249     Supply Side Outlet Pipe, !- Name
   3250     Supply Side Exit Pipe Inlet Node,  !- Inlet Node Name
   3251     CW Supply Outlet Node;   !- Outlet Node Name
   3252 
   3253   Branch,
   3254     CW Pump Branch,          !- Name
   3255     0,                       !- Maximum Flow Rate {m3/s}
   3256     ,                        !- Pressure Drop Curve Name
   3257     Pump:VariableSpeed,      !- Component 1 Object Type
   3258     CW Circ Pump,            !- Component 1 Name
   3259     CW Supply Inlet Node,    !- Component 1 Inlet Node Name
   3260     CW Pump Outlet Node,     !- Component 1 Outlet Node Name
   3261     Active;                  !- Component 1 Branch Control Type
   3262 
   3263   Branch,
   3264     Central Chiller Branch,  !- Name
   3265     0,                       !- Maximum Flow Rate {m3/s}
   3266     ,                        !- Pressure Drop Curve Name
   3267     Chiller:Electric,        !- Component 1 Object Type
   3268     Central Chiller,         !- Component 1 Name
   3269     Central Chiller Inlet Node,  !- Component 1 Inlet Node Name
   3270     Central Chiller Outlet Node,  !- Component 1 Outlet Node Name
   3271     Active;                  !- Component 1 Branch Control Type
   3272 
   3273   Branch,
   3274     Cooling Supply Bypass Branch,  !- Name
   3275     0,                       !- Maximum Flow Rate {m3/s}
   3276     ,                        !- Pressure Drop Curve Name
   3277     Pipe:Adiabatic,          !- Component 1 Object Type
   3278     Supply Side Bypass,      !- Component 1 Name
   3279     CW Supply Bypass Inlet Node,  !- Component 1 Inlet Node Name
   3280     CW Supply Bypass Outlet Node,  !- Component 1 Outlet Node Name
   3281     BYPASS;                  !- Component 1 Branch Control Type
   3282 
   3283   Pipe:Adiabatic,
   3284     Supply Side Bypass,      !- Name
   3285     CW Supply Bypass Inlet Node,  !- Inlet Node Name
   3286     CW Supply Bypass Outlet Node;  !- Outlet Node Name
   3287 
   3288   Connector:Splitter,
   3289     CW Loop Splitter,        !- Name
   3290     CW Pump Branch,          !- Inlet Branch Name
   3291     Central Chiller Branch,  !- Outlet Branch 1 Name
   3292     Cooling Supply Bypass Branch;  !- Outlet Branch 2 Name
   3293 
   3294   Connector:Mixer,
   3295     CW Loop Mixer,           !- Name
   3296     Cooling Supply Outlet,   !- Outlet Branch Name
   3297     Central Chiller Branch,  !- Inlet Branch 1 Name
   3298     Cooling Supply Bypass Branch;  !- Inlet Branch 2 Name
   3299 
   3300   Connector:Splitter,
   3301     CW Demand Splitter,      !- Name
   3302     Cooling Demand Inlet,    !- Inlet Branch Name
   3303     Cooling Coil Branch,     !- Outlet Branch 1 Name
   3304     OA Cooling Coil Branch,  !- Outlet Branch 2 Name
   3305     Cooling Demand Bypass Branch;  !- Outlet Branch 3 Name
   3306 
   3307   Connector:Mixer,
   3308     CW Demand Mixer,         !- Name
   3309     Cooling Demand Outlet,   !- Outlet Branch Name
   3310     Cooling Coil Branch,     !- Inlet Branch 1 Name
   3311     OA Cooling Coil Branch,  !- Inlet Branch 2 Name
   3312     Cooling Demand Bypass Branch;  !- Inlet Branch 3 Name
   3313 
   3314   PlantEquipmentOperationSchemes,
   3315     CW Loop Operation,       !- Name
   3316     PlantEquipmentOperation:CoolingLoad,  !- Control Scheme 1 Object Type
   3317     Central Chiller Only,    !- Control Scheme 1 Name
   3318     PlantOnSched;            !- Control Scheme 1 Schedule Name
   3319 
   3320   PlantEquipmentOperation:CoolingLoad,
   3321     Central Chiller Only,    !- Name
   3322     0,                       !- Load Range 1 Lower Limit {W}
   3323     900000,                  !- Load Range 1 Upper Limit {W}
   3324     Cooling Plant;           !- Range 1 Equipment List Name
   3325 
   3326   PlantEquipmentList,
   3327     Cooling Plant,           !- Name
   3328     Chiller:Electric,        !- Equipment 1 Object Type
   3329     Central Chiller;         !- Equipment 1 Name
   3330 
   3331   Chiller:Electric,
   3332     Central Chiller,         !- Name
   3333     AirCooled,               !- Condenser Type
   3334     autosize,                !- Nominal Capacity {W}
   3335     3.2,                     !- Nominal COP {W/W}
   3336     Central Chiller Inlet Node,  !- Chilled Water Inlet Node Name
   3337     Central Chiller Outlet Node,  !- Chilled Water Outlet Node Name
   3338     Central Chiller Condenser Inlet Node,  !- Condenser Inlet Node Name
   3339     Central Chiller Condenser Outlet Node,  !- Condenser Outlet Node Name
   3340     0.0,                     !- Minimum Part Load Ratio
   3341     1.0,                     !- Maximum Part Load Ratio
   3342     0.65,                    !- Optimum Part Load Ratio
   3343     35.0,                    !- Design Condenser Inlet Temperature {C}
   3344     2.778,                   !- Temperature Rise Coefficient
   3345     6.67,                    !- Design Chilled Water Outlet Temperature {C}
   3346     autosize,                !- Design Chilled Water Flow Rate {m3/s}
   3347     autosize,                !- Design Condenser Fluid Flow Rate {m3/s}
   3348     0.9949,                  !- Coefficient 1 of Capacity Ratio Curve
   3349     -0.045954,               !- Coefficient 2 of Capacity Ratio Curve
   3350     -0.0013543,              !- Coefficient 3 of Capacity Ratio Curve
   3351     2.333,                   !- Coefficient 1 of Power Ratio Curve
   3352     -1.975,                  !- Coefficient 2 of Power Ratio Curve
   3353     0.6121,                  !- Coefficient 3 of Power Ratio Curve
   3354     0.03303,                 !- Coefficient 1 of Full Load Ratio Curve
   3355     0.6852,                  !- Coefficient 2 of Full Load Ratio Curve
   3356     0.2818,                  !- Coefficient 3 of Full Load Ratio Curve
   3357     5,                       !- Chilled Water Outlet Temperature Lower Limit {C}
   3358     LeavingSetpointModulated;!- Chiller Flow Mode
   3359 
   3360   SetpointManager:Scheduled,
   3361     Central Chiller Setpoint Manager,  !- Name
   3362     Temperature,             !- Control Variable
   3363     CW Loop Temp Schedule,   !- Schedule Name
   3364     Central Chiller Outlet Node;  !- Setpoint Node or NodeList Name
   3365 
   3366   OutdoorAir:Node,
   3367     Central Chiller Condenser Inlet Node,  !- Name
   3368     -1.0;                    !- Height Above Ground {m}
   3369 
   3370   Pump:VariableSpeed,
   3371     CW Circ Pump,            !- Name
   3372     CW Supply Inlet Node,    !- Inlet Node Name
   3373     CW Pump Outlet Node,     !- Outlet Node Name
   3374     autosize,                !- Rated Flow Rate {m3/s}
   3375     179352,                  !- Rated Pump Head {Pa}
   3376     autosize,                !- Rated Power Consumption {W}
   3377     0.9,                     !- Motor Efficiency
   3378     0.0,                     !- Fraction of Motor Inefficiencies to Fluid Stream
   3379     0,                       !- Coefficient 1 of the Part Load Performance Curve
   3380     1,                       !- Coefficient 2 of the Part Load Performance Curve
   3381     0,                       !- Coefficient 3 of the Part Load Performance Curve
   3382     0,                       !- Coefficient 4 of the Part Load Performance Curve
   3383     0,                       !- Minimum Flow Rate {m3/s}
   3384     INTERMITTENT,            !- Pump Control Type
   3385     CoolingPumpAvailSched;   !- Pump Flow Rate Schedule Name
   3386 
   3387 !======================START:INPUTS=============================================
   3388 
   3389   ExternalInterface:Schedule,
   3390     CoolTempSch,                         !- Name
   3391     Temperature,                    !- ScheduleType
   3392     23.4;                 !- Initial value, used during warm-up
   3393 
   3394 !======================START:OUTPUTS=============================================
   3395 
   3396 !======================AIR TEMPERATURE=============================================
   3397   ! TEMPERATURE ZONES
   3398   Output:Variable,Environment,Site Outdoor Air Drybulb Temperature,timestep;
   3399   Output:Variable,SPACE1-1,Zone Air Temperature,timestep;
   3400   Output:Variable,SPACE2-1,Zone Air Temperature,timestep;
   3401   Output:Variable,SPACE3-1,Zone Air Temperature,timestep;
   3402   Output:Variable,SPACE4-1,Zone Air Temperature,timestep;
   3403   Output:Variable,SPACE5-1,Zone Air Temperature,timestep;
   3404   Output:Variable,PLENUM-1,Zone Air Temperature,timestep;
   3405 
   3406 
   3407 !======================START:METERS=============================================
   3408 
   3409   Output:Meter:MeterFileOnly,Electricity:Facility,monthly;
   3410 
   3411   Output:Meter:MeterFileOnly,Electricity:Building,monthly;
   3412 
   3413   Output:Meter:MeterFileOnly,InteriorLights:Electricity,monthly;
   3414 
   3415   Output:Meter:MeterFileOnly,Electricity:HVAC,monthly;
   3416 
   3417   Output:Meter:MeterFileOnly,Electricity:Plant,monthly;
   3418 
   3419   Output:Meter:MeterFileOnly,Gas:Facility,monthly;
   3420 
   3421   Output:Meter:MeterFileOnly,Gas:Plant,monthly;
   3422 
   3423   Output:Meter:MeterFileOnly,Electricity:Facility,runperiod;
   3424 
   3425   Output:Meter:MeterFileOnly,Electricity:Building,runperiod;
   3426 
   3427   Output:Meter:MeterFileOnly,InteriorLights:Electricity,runperiod;
   3428 
   3429   Output:Meter:MeterFileOnly,Electricity:HVAC,runperiod;
   3430 
   3431   Output:Meter:MeterFileOnly,Electricity:Plant,runperiod;
   3432 
   3433   Output:Meter:MeterFileOnly,Gas:Facility,runperiod;
   3434 
   3435   Output:Meter:MeterFileOnly,Gas:Plant,runperiod;
   3436 
   3437   Output:Meter:MeterFileOnly,MyGeneralLights,monthly;
   3438 
   3439   Output:Meter:MeterFileOnly,MyGeneralLights,runperiod;
   3440 
   3441   Output:Meter:MeterFileOnly,MyBuildingElectric,monthly;
   3442 
   3443   Output:Meter:MeterFileOnly,MyBuildingElectric,runperiod;
   3444 
   3445   Output:Meter:MeterFileOnly,MyBuildingOther,monthly;
   3446 
   3447   Output:Meter:MeterFileOnly,MyBuildingOther,runperiod;
   3448 
   3449 ! The following custom meters are set up to illustrate the capabilities
   3450 ! of custom meters.
   3451 ! Custom Meter "MyGeneralLights" duplicates the InteriorLights:Electricity meter.
   3452 ! Custom Meter "MyBuildingElectric" duplicates the Electricity:Building meter (by specifying that meter).
   3453 ! Custom Meter (Decrement) "MyBuildingOther" uses Electricity:Building as its source meter
   3454 !   and subtracts out the values for MyGeneralLights (aka InteriorLights:Electricity).  The
   3455 !   resultant value for MyBuildingOther should be equal to the value for the meters
   3456 !   Electricity:Building - InteriorLights:Electricity (aka MyGeneralLights)
   3457 
   3458   Meter:Custom,
   3459     MyGeneralLights,         !- Name
   3460     Electricity,             !- Fuel Type
   3461     SPACE1-1 Lights 1,       !- Key Name 1
   3462     Lights Electric Energy,  !- Report Variable or Meter Name 1
   3463     SPACE2-1 Lights 1,       !- Key Name 2
   3464     Lights Electric Energy,  !- Report Variable or Meter Name 2
   3465     SPACE3-1 Lights 1,       !- Key Name 3
   3466     Lights Electric Energy,  !- Report Variable or Meter Name 3
   3467     SPACE4-1 Lights 1,       !- Key Name 4
   3468     Lights Electric Energy,  !- Report Variable or Meter Name 4
   3469     SPACE5-1 Lights 1,       !- Key Name 5
   3470     Lights Electric Energy;  !- Report Variable or Meter Name 5
   3471 
   3472   Meter:Custom,
   3473     MyBuildingElectric,      !- Name
   3474     Electricity,             !- Fuel Type
   3475     ,                        !- Key Name 1
   3476     Electricity:Building;    !- Report Variable or Meter Name 1
   3477 
   3478   Meter:CustomDecrement,
   3479     MyBuildingOther,         !- Name
   3480     Electricity,             !- Fuel Type
   3481     Electricity:Building,    !- Source Meter Name
   3482     ,                        !- Key Name 1
   3483     MyGeneralLights;         !- Report Variable or Meter Name 1
   3484 
   3485   Output:Surfaces:Drawing,VRML;
   3486 
   3487   OutputControl:Table:Style,
   3488     HTML;                    !- Column Separator
   3489 
   3490   Output:Table:SummaryReports,
   3491     AllSummary,
   3492     ZoneComponentLoadSummary;              !- Report 1 Name
   3493 
   3494   Output:Surfaces:List,Details;
   3495 
  Processing Input Data File (in.idf) -- Complete
  Maximum number of Alpha IDF Args=          29
  Maximum number of Numeric IDF Args=          20
  Number of IDF "Lines"=         335
  Number of Defaulted Fields=          61
  Number of Fields with Defaults=         733
  Number of Autosized Fields=          66
  Number of Autosizable Fields =          93
  Number of Autocalculated Fields=          17
  Number of Autocalculatable Fields =         123
 Getting object=VERSION
 Getting object=HEATBALANCEALGORITHM
 Getting object=TIMESTEP
 Getting object=SIMULATIONCONTROL
 Getting object=OUTPUT:SURFACES:LIST
 Getting object=OUTPUT:SURFACES:DRAWING
 Getting object=BRANCH
 Getting object=CURVE:QUADRATIC
 Getting object=NODELIST
 Getting object=BRANCHLIST
 Getting object=DESIGNSPECIFICATION:OUTDOORAIR
 Getting object=SIZING:PARAMETERS
 Getting object=ZONE
 Getting object=SIZING:ZONE
 Getting object=SIZING:SYSTEM
 Getting object=SIZING:PLANT
 Getting object=OUTPUT:TABLE:SUMMARYREPORTS
 Getting object=SIZINGPERIOD:DESIGNDAY
 Getting object=RUNPERIOD
 Getting object=SITE:LOCATION
 Getting object=SITE:GROUNDTEMPERATURE:BUILDINGSURFACE
 Getting object=OUTPUT:VARIABLE
 Getting object=SCHEDULE:COMPACT
  Processing Schedule Input -- Start
 Getting object=SCHEDULETYPELIMITS
 Getting object=EXTERNALINTERFACE:SCHEDULE
  Processing Schedule Input -- Complete
 Getting object=BUILDING
 Getting object=SURFACECONVECTIONALGORITHM:INSIDE
 Getting object=SURFACECONVECTIONALGORITHM:OUTSIDE
 Getting object=MATERIAL
 Getting object=MATERIAL:NOMASS
 Getting object=MATERIAL:AIRGAP
 Getting object=WINDOWMATERIAL:GLAZING
 Getting object=WINDOWMATERIAL:GAS
 Getting object=CONSTRUCTION
 Getting object=GLOBALGEOMETRYRULES
 Getting object=BUILDINGSURFACE:DETAILED
 Getting object=FENESTRATIONSURFACE:DETAILED
 Getting object=SHADING:ZONE:DETAILED
 Getting object=PEOPLE
 Getting object=LIGHTS
 Getting object=ELECTRICEQUIPMENT
 Getting object=ZONEINFILTRATION:DESIGNFLOWRATE
 Getting object=OUTDOORAIR:NODELIST
 Getting object=OUTDOORAIR:NODE
 Getting object=ZONECONTROL:THERMOSTAT
 Getting object=THERMOSTATSETPOINT:SINGLEHEATING
 Getting object=THERMOSTATSETPOINT:SINGLECOOLING
 Getting object=THERMOSTATSETPOINT:DUALSETPOINT
 Getting object=SETPOINTMANAGER:SCHEDULED
 Getting object=SETPOINTMANAGER:MIXEDAIR
 Getting object=PLANTLOOP
 Getting object=AVAILABILITYMANAGER:SCHEDULED
 Getting object=AVAILABILITYMANAGER:LOWTEMPERATURETURNOFF
 Getting object=AVAILABILITYMANAGERASSIGNMENTLIST
 Getting object=CONNECTORLIST
 Getting object=CONNECTOR:SPLITTER
 Getting object=CONNECTOR:MIXER
 Getting object=ZONEHVAC:EQUIPMENTCONNECTIONS
 Getting object=ZONEHVAC:EQUIPMENTLIST
 Getting object=AIRLOOPHVAC:SUPPLYPATH
 Getting object=AIRLOOPHVAC:RETURNPATH
 Getting object=AIRLOOPHVAC:ZONESPLITTER
 Getting object=ZONEHVAC:AIRDISTRIBUTIONUNIT
 Getting object=AIRTERMINAL:SINGLEDUCT:VAV:REHEAT
 Getting object=COIL:HEATING:WATER
 Getting object=COIL:COOLING:WATER
 Getting object=AIRLOOPHVAC:RETURNPLENUM
 Getting object=AIRLOOPHVAC
 Getting object=AIRLOOPHVAC:CONTROLLERLIST
 Getting object=AIRLOOPHVAC:OUTDOORAIRSYSTEM
 Getting object=AIRLOOPHVAC:OUTDOORAIRSYSTEM:EQUIPMENTLIST
 Getting object=OUTDOORAIR:MIXER
 Getting object=CONTROLLER:WATERCOIL
 Getting object=CONTROLLER:OUTDOORAIR
 Getting object=FAN:VARIABLEVOLUME
 Getting object=PIPE:ADIABATIC
 Getting object=BOILER:HOTWATER
 Getting object=CHILLER:ELECTRIC
 Getting object=PLANTEQUIPMENTOPERATIONSCHEMES
 Getting object=PLANTEQUIPMENTOPERATION:COOLINGLOAD
 Getting object=PLANTEQUIPMENTOPERATION:HEATINGLOAD
 Getting object=PLANTEQUIPMENTLIST
 Getting object=PUMP:VARIABLESPEED
 Getting object=METER:CUSTOM
 Getting object=METER:CUSTOMDECREMENT
 Getting object=OUTPUT:METER:METERFILEONLY
 Getting object=EXTERNALINTERFACE
 Getting object=OUTPUTCONTROL:TABLE:STYLE
